
*** ChampSim Multicore Out-of-Order Simulator ***

Warmup Instructions: 10000000
Simulation Instructions: 100000000
Configuration: 2
Number of CPUs: 1
LLC sets: 2048
LLC ways: 16
Off-chip DRAM Channels: 1 Width: 64-bit Data Rate: 1600 MT/s

CPU 0 runs /datasets/cs240c-wi22-a00-public/data/Assignment2-gz/milc_409B.trace.gz
CPU 0 L1D next line prefetcher
CPU 0 L2C IP-based stride prefetcher
Initialize SRRIP state
Heartbeat CPU 0 instructions: 1000002 cycles: 407040 heartbeat IPC: 2.45677 cumulative IPC: 2.45677 (Simulation time: 0 hr 0 min 28 sec) 
Heartbeat CPU 0 instructions: 2000002 cycles: 889868 heartbeat IPC: 2.07113 cumulative IPC: 2.24753 (Simulation time: 0 hr 0 min 58 sec) 
Heartbeat CPU 0 instructions: 3000003 cycles: 1672035 heartbeat IPC: 1.2785 cumulative IPC: 1.79422 (Simulation time: 0 hr 1 min 35 sec) 
Heartbeat CPU 0 instructions: 4000000 cycles: 2454292 heartbeat IPC: 1.27835 cumulative IPC: 1.6298 (Simulation time: 0 hr 2 min 14 sec) 
Heartbeat CPU 0 instructions: 5000000 cycles: 3135413 heartbeat IPC: 1.46817 cumulative IPC: 1.59469 (Simulation time: 0 hr 2 min 51 sec) 
Heartbeat CPU 0 instructions: 6000003 cycles: 3679805 heartbeat IPC: 1.83692 cumulative IPC: 1.63052 (Simulation time: 0 hr 3 min 23 sec) 
Heartbeat CPU 0 instructions: 7000002 cycles: 4224111 heartbeat IPC: 1.8372 cumulative IPC: 1.65715 (Simulation time: 0 hr 3 min 55 sec) 
Heartbeat CPU 0 instructions: 8000000 cycles: 4768519 heartbeat IPC: 1.83685 cumulative IPC: 1.67767 (Simulation time: 0 hr 4 min 26 sec) 
Heartbeat CPU 0 instructions: 9000003 cycles: 5312845 heartbeat IPC: 1.83714 cumulative IPC: 1.69401 (Simulation time: 0 hr 4 min 57 sec) 
Heartbeat CPU 0 instructions: 10000000 cycles: 5857233 heartbeat IPC: 1.83692 cumulative IPC: 1.70729 (Simulation time: 0 hr 5 min 29 sec) 

Warmup complete CPU 0 instructions: 10000002 cycles: 5857234 (Simulation time: 0 hr 5 min 29 sec) 

Heartbeat CPU 0 instructions: 11000002 cycles: 7544409 heartbeat IPC: 0.592708 cumulative IPC: 0.592707 (Simulation time: 0 hr 6 min 4 sec) 
Heartbeat CPU 0 instructions: 12000000 cycles: 9224883 heartbeat IPC: 0.595069 cumulative IPC: 0.593886 (Simulation time: 0 hr 6 min 41 sec) 
Heartbeat CPU 0 instructions: 13000003 cycles: 10906803 heartbeat IPC: 0.59456 cumulative IPC: 0.59411 (Simulation time: 0 hr 7 min 16 sec) 
Heartbeat CPU 0 instructions: 14000002 cycles: 12587347 heartbeat IPC: 0.595045 cumulative IPC: 0.594344 (Simulation time: 0 hr 7 min 50 sec) 
Heartbeat CPU 0 instructions: 15000001 cycles: 14264992 heartbeat IPC: 0.596073 cumulative IPC: 0.594689 (Simulation time: 0 hr 8 min 25 sec) 
Heartbeat CPU 0 instructions: 16000000 cycles: 15943719 heartbeat IPC: 0.595689 cumulative IPC: 0.594855 (Simulation time: 0 hr 8 min 59 sec) 
Heartbeat CPU 0 instructions: 17000002 cycles: 17613019 heartbeat IPC: 0.599055 cumulative IPC: 0.595452 (Simulation time: 0 hr 9 min 34 sec) 
Heartbeat CPU 0 instructions: 18000000 cycles: 19294590 heartbeat IPC: 0.594681 cumulative IPC: 0.595355 (Simulation time: 0 hr 10 min 10 sec) 
Heartbeat CPU 0 instructions: 19000003 cycles: 20971672 heartbeat IPC: 0.596276 cumulative IPC: 0.595457 (Simulation time: 0 hr 10 min 45 sec) 
Heartbeat CPU 0 instructions: 20000000 cycles: 22652297 heartbeat IPC: 0.595015 cumulative IPC: 0.595413 (Simulation time: 0 hr 11 min 20 sec) 
Heartbeat CPU 0 instructions: 21000001 cycles: 24326290 heartbeat IPC: 0.597375 cumulative IPC: 0.595591 (Simulation time: 0 hr 11 min 54 sec) 
Heartbeat CPU 0 instructions: 22000002 cycles: 26005739 heartbeat IPC: 0.595434 cumulative IPC: 0.595578 (Simulation time: 0 hr 12 min 28 sec) 
Heartbeat CPU 0 instructions: 23000002 cycles: 27680035 heartbeat IPC: 0.597266 cumulative IPC: 0.595707 (Simulation time: 0 hr 13 min 3 sec) 
Heartbeat CPU 0 instructions: 24000000 cycles: 29350591 heartbeat IPC: 0.598602 cumulative IPC: 0.595913 (Simulation time: 0 hr 13 min 39 sec) 
Heartbeat CPU 0 instructions: 25000002 cycles: 31026314 heartbeat IPC: 0.596759 cumulative IPC: 0.595969 (Simulation time: 0 hr 14 min 16 sec) 
Heartbeat CPU 0 instructions: 26000000 cycles: 32701141 heartbeat IPC: 0.597075 cumulative IPC: 0.596038 (Simulation time: 0 hr 14 min 51 sec) 
Heartbeat CPU 0 instructions: 27000002 cycles: 34374013 heartbeat IPC: 0.597776 cumulative IPC: 0.59614 (Simulation time: 0 hr 15 min 25 sec) 
Heartbeat CPU 0 instructions: 28000000 cycles: 36050975 heartbeat IPC: 0.596315 cumulative IPC: 0.59615 (Simulation time: 0 hr 16 min 0 sec) 
Heartbeat CPU 0 instructions: 29000002 cycles: 37720270 heartbeat IPC: 0.599056 cumulative IPC: 0.596302 (Simulation time: 0 hr 16 min 36 sec) 
Heartbeat CPU 0 instructions: 30000000 cycles: 39391497 heartbeat IPC: 0.598362 cumulative IPC: 0.596405 (Simulation time: 0 hr 17 min 12 sec) 
Heartbeat CPU 0 instructions: 31000000 cycles: 41067540 heartbeat IPC: 0.596643 cumulative IPC: 0.596416 (Simulation time: 0 hr 17 min 46 sec) 
Heartbeat CPU 0 instructions: 32000000 cycles: 42744299 heartbeat IPC: 0.596389 cumulative IPC: 0.596415 (Simulation time: 0 hr 18 min 20 sec) 
Heartbeat CPU 0 instructions: 33000000 cycles: 44418137 heartbeat IPC: 0.597429 cumulative IPC: 0.596459 (Simulation time: 0 hr 18 min 55 sec) 
Heartbeat CPU 0 instructions: 34000000 cycles: 46094922 heartbeat IPC: 0.596379 cumulative IPC: 0.596456 (Simulation time: 0 hr 19 min 31 sec) 
Heartbeat CPU 0 instructions: 35000002 cycles: 47765769 heartbeat IPC: 0.5985 cumulative IPC: 0.596537 (Simulation time: 0 hr 20 min 5 sec) 
Heartbeat CPU 0 instructions: 36000000 cycles: 49437606 heartbeat IPC: 0.598143 cumulative IPC: 0.596599 (Simulation time: 0 hr 20 min 38 sec) 
Heartbeat CPU 0 instructions: 37000000 cycles: 51111771 heartbeat IPC: 0.597313 cumulative IPC: 0.596625 (Simulation time: 0 hr 21 min 12 sec) 
Heartbeat CPU 0 instructions: 38000002 cycles: 52778340 heartbeat IPC: 0.600036 cumulative IPC: 0.596746 (Simulation time: 0 hr 21 min 43 sec) 
Heartbeat CPU 0 instructions: 39000001 cycles: 54455681 heartbeat IPC: 0.596181 cumulative IPC: 0.596727 (Simulation time: 0 hr 22 min 16 sec) 
Heartbeat CPU 0 instructions: 40000000 cycles: 56129226 heartbeat IPC: 0.597533 cumulative IPC: 0.596754 (Simulation time: 0 hr 22 min 51 sec) 
Heartbeat CPU 0 instructions: 41000002 cycles: 57801064 heartbeat IPC: 0.598145 cumulative IPC: 0.596798 (Simulation time: 0 hr 23 min 27 sec) 
Heartbeat CPU 0 instructions: 42000001 cycles: 59474543 heartbeat IPC: 0.597557 cumulative IPC: 0.596822 (Simulation time: 0 hr 23 min 59 sec) 
Heartbeat CPU 0 instructions: 43000000 cycles: 61148218 heartbeat IPC: 0.597487 cumulative IPC: 0.596842 (Simulation time: 0 hr 24 min 33 sec) 
Heartbeat CPU 0 instructions: 44000000 cycles: 62827467 heartbeat IPC: 0.595504 cumulative IPC: 0.596803 (Simulation time: 0 hr 25 min 8 sec) 
Heartbeat CPU 0 instructions: 45000000 cycles: 64498918 heartbeat IPC: 0.598283 cumulative IPC: 0.596845 (Simulation time: 0 hr 25 min 42 sec) 
Heartbeat CPU 0 instructions: 46000000 cycles: 66174065 heartbeat IPC: 0.596963 cumulative IPC: 0.596848 (Simulation time: 0 hr 26 min 17 sec) 
Heartbeat CPU 0 instructions: 47000002 cycles: 67845577 heartbeat IPC: 0.598262 cumulative IPC: 0.596886 (Simulation time: 0 hr 26 min 51 sec) 
Heartbeat CPU 0 instructions: 48000000 cycles: 69513601 heartbeat IPC: 0.599511 cumulative IPC: 0.596955 (Simulation time: 0 hr 27 min 25 sec) 
Heartbeat CPU 0 instructions: 49000000 cycles: 71184207 heartbeat IPC: 0.598585 cumulative IPC: 0.596997 (Simulation time: 0 hr 28 min 3 sec) 
Heartbeat CPU 0 instructions: 50000001 cycles: 72853723 heartbeat IPC: 0.598977 cumulative IPC: 0.597046 (Simulation time: 0 hr 28 min 40 sec) 
Heartbeat CPU 0 instructions: 51000002 cycles: 74530634 heartbeat IPC: 0.596335 cumulative IPC: 0.597029 (Simulation time: 0 hr 29 min 15 sec) 
Heartbeat CPU 0 instructions: 52000000 cycles: 76342671 heartbeat IPC: 0.551864 cumulative IPC: 0.595868 (Simulation time: 0 hr 29 min 50 sec) 
Heartbeat CPU 0 instructions: 53000001 cycles: 78463433 heartbeat IPC: 0.471529 cumulative IPC: 0.592236 (Simulation time: 0 hr 30 min 29 sec) 
Heartbeat CPU 0 instructions: 54000001 cycles: 80725892 heartbeat IPC: 0.441997 cumulative IPC: 0.587696 (Simulation time: 0 hr 31 min 7 sec) 
Heartbeat CPU 0 instructions: 55000002 cycles: 83038754 heartbeat IPC: 0.432365 cumulative IPC: 0.583041 (Simulation time: 0 hr 31 min 45 sec) 
Heartbeat CPU 0 instructions: 56000000 cycles: 85374140 heartbeat IPC: 0.428194 cumulative IPC: 0.578493 (Simulation time: 0 hr 32 min 24 sec) 
Heartbeat CPU 0 instructions: 57000000 cycles: 87698205 heartbeat IPC: 0.430281 cumulative IPC: 0.574284 (Simulation time: 0 hr 33 min 2 sec) 
Heartbeat CPU 0 instructions: 58000002 cycles: 89974884 heartbeat IPC: 0.439237 cumulative IPC: 0.570629 (Simulation time: 0 hr 33 min 38 sec) 
Heartbeat CPU 0 instructions: 59000001 cycles: 91789663 heartbeat IPC: 0.551031 cumulative IPC: 0.570215 (Simulation time: 0 hr 34 min 13 sec) 
Heartbeat CPU 0 instructions: 60000000 cycles: 93484259 heartbeat IPC: 0.590111 cumulative IPC: 0.5706 (Simulation time: 0 hr 34 min 48 sec) 
Heartbeat CPU 0 instructions: 61000000 cycles: 95176232 heartbeat IPC: 0.591026 cumulative IPC: 0.570987 (Simulation time: 0 hr 35 min 22 sec) 
Heartbeat CPU 0 instructions: 62000000 cycles: 96861031 heartbeat IPC: 0.593543 cumulative IPC: 0.571405 (Simulation time: 0 hr 35 min 55 sec) 
Heartbeat CPU 0 instructions: 63000003 cycles: 98557267 heartbeat IPC: 0.589542 cumulative IPC: 0.571737 (Simulation time: 0 hr 36 min 29 sec) 
Heartbeat CPU 0 instructions: 64000000 cycles: 100250472 heartbeat IPC: 0.590594 cumulative IPC: 0.572075 (Simulation time: 0 hr 37 min 4 sec) 
Heartbeat CPU 0 instructions: 65000002 cycles: 101946310 heartbeat IPC: 0.58968 cumulative IPC: 0.572386 (Simulation time: 0 hr 37 min 41 sec) 
Heartbeat CPU 0 instructions: 66000002 cycles: 103634433 heartbeat IPC: 0.592374 cumulative IPC: 0.572731 (Simulation time: 0 hr 38 min 15 sec) 
Heartbeat CPU 0 instructions: 67000001 cycles: 105322150 heartbeat IPC: 0.592516 cumulative IPC: 0.573066 (Simulation time: 0 hr 38 min 49 sec) 
Heartbeat CPU 0 instructions: 68000000 cycles: 107010607 heartbeat IPC: 0.592256 cumulative IPC: 0.573387 (Simulation time: 0 hr 39 min 23 sec) 
Heartbeat CPU 0 instructions: 69000000 cycles: 108700991 heartbeat IPC: 0.591582 cumulative IPC: 0.573686 (Simulation time: 0 hr 39 min 57 sec) 
Heartbeat CPU 0 instructions: 70000000 cycles: 110384386 heartbeat IPC: 0.594038 cumulative IPC: 0.574014 (Simulation time: 0 hr 40 min 31 sec) 
Heartbeat CPU 0 instructions: 71000002 cycles: 112069793 heartbeat IPC: 0.59333 cumulative IPC: 0.57432 (Simulation time: 0 hr 41 min 6 sec) 
Heartbeat CPU 0 instructions: 72000000 cycles: 113754968 heartbeat IPC: 0.593409 cumulative IPC: 0.574618 (Simulation time: 0 hr 41 min 42 sec) 
Heartbeat CPU 0 instructions: 73000003 cycles: 115438332 heartbeat IPC: 0.59405 cumulative IPC: 0.574917 (Simulation time: 0 hr 42 min 16 sec) 
Heartbeat CPU 0 instructions: 74000002 cycles: 117123325 heartbeat IPC: 0.593474 cumulative IPC: 0.575198 (Simulation time: 0 hr 42 min 52 sec) 
Heartbeat CPU 0 instructions: 75000003 cycles: 118804669 heartbeat IPC: 0.594763 cumulative IPC: 0.575489 (Simulation time: 0 hr 43 min 28 sec) 
Heartbeat CPU 0 instructions: 76000000 cycles: 120496718 heartbeat IPC: 0.590998 cumulative IPC: 0.575718 (Simulation time: 0 hr 44 min 3 sec) 
Heartbeat CPU 0 instructions: 77000003 cycles: 122183457 heartbeat IPC: 0.592862 cumulative IPC: 0.575966 (Simulation time: 0 hr 44 min 36 sec) 
Heartbeat CPU 0 instructions: 78000000 cycles: 123872073 heartbeat IPC: 0.592199 cumulative IPC: 0.576199 (Simulation time: 0 hr 45 min 9 sec) 
Heartbeat CPU 0 instructions: 79000000 cycles: 125554506 heartbeat IPC: 0.594377 cumulative IPC: 0.576454 (Simulation time: 0 hr 45 min 42 sec) 
Heartbeat CPU 0 instructions: 80000000 cycles: 127239629 heartbeat IPC: 0.593428 cumulative IPC: 0.57669 (Simulation time: 0 hr 46 min 14 sec) 
Heartbeat CPU 0 instructions: 81000000 cycles: 128926105 heartbeat IPC: 0.592952 cumulative IPC: 0.576913 (Simulation time: 0 hr 46 min 47 sec) 
Heartbeat CPU 0 instructions: 82000002 cycles: 130607809 heartbeat IPC: 0.594636 cumulative IPC: 0.577152 (Simulation time: 0 hr 47 min 20 sec) 
Heartbeat CPU 0 instructions: 83000003 cycles: 132285094 heartbeat IPC: 0.596202 cumulative IPC: 0.577404 (Simulation time: 0 hr 47 min 52 sec) 
Heartbeat CPU 0 instructions: 84000000 cycles: 133961522 heartbeat IPC: 0.596505 cumulative IPC: 0.577654 (Simulation time: 0 hr 48 min 25 sec) 
Heartbeat CPU 0 instructions: 85000001 cycles: 135637634 heartbeat IPC: 0.596619 cumulative IPC: 0.577899 (Simulation time: 0 hr 48 min 57 sec) 
Heartbeat CPU 0 instructions: 86000002 cycles: 137317195 heartbeat IPC: 0.595394 cumulative IPC: 0.578123 (Simulation time: 0 hr 49 min 30 sec) 
Heartbeat CPU 0 instructions: 87000003 cycles: 139000007 heartbeat IPC: 0.594244 cumulative IPC: 0.578327 (Simulation time: 0 hr 50 min 3 sec) 
Heartbeat CPU 0 instructions: 88000000 cycles: 140679944 heartbeat IPC: 0.595259 cumulative IPC: 0.578538 (Simulation time: 0 hr 50 min 33 sec) 
Heartbeat CPU 0 instructions: 89000001 cycles: 142360484 heartbeat IPC: 0.595047 cumulative IPC: 0.578741 (Simulation time: 0 hr 51 min 3 sec) 
Heartbeat CPU 0 instructions: 90000002 cycles: 144044345 heartbeat IPC: 0.593874 cumulative IPC: 0.578925 (Simulation time: 0 hr 51 min 31 sec) 
Heartbeat CPU 0 instructions: 91000000 cycles: 145719855 heartbeat IPC: 0.596832 cumulative IPC: 0.57914 (Simulation time: 0 hr 52 min 0 sec) 
Heartbeat CPU 0 instructions: 92000000 cycles: 147399465 heartbeat IPC: 0.595376 cumulative IPC: 0.579332 (Simulation time: 0 hr 52 min 27 sec) 
Heartbeat CPU 0 instructions: 93000003 cycles: 149076284 heartbeat IPC: 0.596369 cumulative IPC: 0.579532 (Simulation time: 0 hr 52 min 53 sec) 
Heartbeat CPU 0 instructions: 94000002 cycles: 150754733 heartbeat IPC: 0.595788 cumulative IPC: 0.57972 (Simulation time: 0 hr 53 min 20 sec) 
Heartbeat CPU 0 instructions: 95000003 cycles: 152431907 heartbeat IPC: 0.596242 cumulative IPC: 0.579909 (Simulation time: 0 hr 53 min 46 sec) 
Heartbeat CPU 0 instructions: 96000000 cycles: 154110386 heartbeat IPC: 0.595776 cumulative IPC: 0.580089 (Simulation time: 0 hr 54 min 10 sec) 
Heartbeat CPU 0 instructions: 97000001 cycles: 155794300 heartbeat IPC: 0.593855 cumulative IPC: 0.580243 (Simulation time: 0 hr 54 min 34 sec) 
Heartbeat CPU 0 instructions: 98000002 cycles: 157479264 heartbeat IPC: 0.593485 cumulative IPC: 0.580391 (Simulation time: 0 hr 54 min 58 sec) 
Heartbeat CPU 0 instructions: 99000003 cycles: 159163293 heartbeat IPC: 0.593815 cumulative IPC: 0.580538 (Simulation time: 0 hr 55 min 21 sec) 
Heartbeat CPU 0 instructions: 100000000 cycles: 160840702 heartbeat IPC: 0.596156 cumulative IPC: 0.580707 (Simulation time: 0 hr 55 min 42 sec) 
Heartbeat CPU 0 instructions: 101000001 cycles: 162516948 heartbeat IPC: 0.596572 cumulative IPC: 0.580877 (Simulation time: 0 hr 56 min 5 sec) 
Heartbeat CPU 0 instructions: 102000002 cycles: 164197377 heartbeat IPC: 0.595087 cumulative IPC: 0.581028 (Simulation time: 0 hr 56 min 28 sec) 
Heartbeat CPU 0 instructions: 103000000 cycles: 165876020 heartbeat IPC: 0.595718 cumulative IPC: 0.581182 (Simulation time: 0 hr 56 min 50 sec) 
Heartbeat CPU 0 instructions: 104000000 cycles: 167553546 heartbeat IPC: 0.596116 cumulative IPC: 0.581337 (Simulation time: 0 hr 57 min 13 sec) 
Heartbeat CPU 0 instructions: 105000003 cycles: 169361060 heartbeat IPC: 0.553248 cumulative IPC: 0.581026 (Simulation time: 0 hr 57 min 37 sec) 
Heartbeat CPU 0 instructions: 106000003 cycles: 173389707 heartbeat IPC: 0.248222 cumulative IPC: 0.573023 (Simulation time: 0 hr 58 min 11 sec) 
Heartbeat CPU 0 instructions: 107000000 cycles: 175203553 heartbeat IPC: 0.551313 cumulative IPC: 0.572791 (Simulation time: 0 hr 58 min 30 sec) 
Heartbeat CPU 0 instructions: 108000000 cycles: 177004742 heartbeat IPC: 0.555189 cumulative IPC: 0.572605 (Simulation time: 0 hr 58 min 48 sec) 
Heartbeat CPU 0 instructions: 109000001 cycles: 178817459 heartbeat IPC: 0.551659 cumulative IPC: 0.572386 (Simulation time: 0 hr 59 min 7 sec) 
Heartbeat CPU 0 instructions: 110000001 cycles: 180624580 heartbeat IPC: 0.553366 cumulative IPC: 0.572189 (Simulation time: 0 hr 59 min 24 sec) 
Finished CPU 0 instructions: 100000003 cycles: 174767347 cummulative IPC: 0.572189 (Simulation time: 0 hr 59 min 24 sec) 

ChampSim completed all CPUs

Region of Interest Statistics

CPU 0 cummulative IPC: 0.572189 instructions: 100000003 cycles: 174767347
LLC TOTAL     ACCESS:    3300884  HIT:     462208  MISS:    2838676
LLC LOAD      ACCESS:     970972  HIT:          0  MISS:     970972
LLC RFO       ACCESS:     136847  HIT:          4  MISS:     136843
LLC PREFETCH  ACCESS:    1334976  HIT:          0  MISS:    1334976
LLC WRITEBACK ACCESS:     858089  HIT:     462204  MISS:     395885
Insertion Distribution: 
	LOAD 0 0 681390 337303 
	RFO 0 0 161942 115913 
	PREF 0 0 817549 746051 
	WRITEBACK 0 0 0 466316 
Total Prefetch Downgrades: 0
