
*** ChampSim Multicore Out-of-Order Simulator ***

Warmup Instructions: 10000000
Simulation Instructions: 100000000
Configuration: 2
Number of CPUs: 1
LLC sets: 2048
LLC ways: 16
Off-chip DRAM Channels: 1 Width: 64-bit Data Rate: 1600 MT/s

CPU 0 runs /datasets/cs240c-wi22-a00-public/data/Assignment2-gz/bzip2_183B.trace.gz
CPU 0 L1D next line prefetcher
CPU 0 L2C IP-based stride prefetcher
Initialize SRRIP state
Heartbeat CPU 0 instructions: 1000000 cycles: 447972 heartbeat IPC: 2.23228 cumulative IPC: 2.23228 (Simulation time: 0 hr 0 min 31 sec) 
Heartbeat CPU 0 instructions: 2000001 cycles: 951246 heartbeat IPC: 1.98699 cumulative IPC: 2.10251 (Simulation time: 0 hr 1 min 2 sec) 
Heartbeat CPU 0 instructions: 3000001 cycles: 1457933 heartbeat IPC: 1.97361 cumulative IPC: 2.05771 (Simulation time: 0 hr 1 min 34 sec) 
Heartbeat CPU 0 instructions: 4000000 cycles: 1928626 heartbeat IPC: 2.12452 cumulative IPC: 2.07402 (Simulation time: 0 hr 2 min 5 sec) 
Heartbeat CPU 0 instructions: 5000000 cycles: 2425933 heartbeat IPC: 2.01083 cumulative IPC: 2.06106 (Simulation time: 0 hr 2 min 36 sec) 
Heartbeat CPU 0 instructions: 6000001 cycles: 2887533 heartbeat IPC: 2.16638 cumulative IPC: 2.0779 (Simulation time: 0 hr 3 min 5 sec) 
Heartbeat CPU 0 instructions: 7000002 cycles: 3343396 heartbeat IPC: 2.19364 cumulative IPC: 2.09368 (Simulation time: 0 hr 3 min 38 sec) 
Heartbeat CPU 0 instructions: 8000000 cycles: 3812995 heartbeat IPC: 2.12947 cumulative IPC: 2.09809 (Simulation time: 0 hr 4 min 8 sec) 
Heartbeat CPU 0 instructions: 9000003 cycles: 4278249 heartbeat IPC: 2.14937 cumulative IPC: 2.10367 (Simulation time: 0 hr 4 min 38 sec) 
Heartbeat CPU 0 instructions: 10000000 cycles: 4746609 heartbeat IPC: 2.1351 cumulative IPC: 2.10677 (Simulation time: 0 hr 5 min 7 sec) 

Warmup complete CPU 0 instructions: 10000001 cycles: 4746610 (Simulation time: 0 hr 5 min 7 sec) 

Heartbeat CPU 0 instructions: 11000000 cycles: 6254529 heartbeat IPC: 0.663165 cumulative IPC: 0.663165 (Simulation time: 0 hr 5 min 35 sec) 
Heartbeat CPU 0 instructions: 12000000 cycles: 7711785 heartbeat IPC: 0.686221 cumulative IPC: 0.674496 (Simulation time: 0 hr 6 min 1 sec) 
Heartbeat CPU 0 instructions: 13000000 cycles: 8937659 heartbeat IPC: 0.815745 cumulative IPC: 0.715811 (Simulation time: 0 hr 6 min 31 sec) 
Heartbeat CPU 0 instructions: 14000003 cycles: 9987329 heartbeat IPC: 0.952683 cumulative IPC: 0.763254 (Simulation time: 0 hr 6 min 58 sec) 
Heartbeat CPU 0 instructions: 15000000 cycles: 11381275 heartbeat IPC: 0.717386 cumulative IPC: 0.753617 (Simulation time: 0 hr 7 min 26 sec) 
Heartbeat CPU 0 instructions: 16000000 cycles: 12358707 heartbeat IPC: 1.02309 cumulative IPC: 0.788219 (Simulation time: 0 hr 7 min 51 sec) 
Heartbeat CPU 0 instructions: 17000003 cycles: 13259404 heartbeat IPC: 1.11025 cumulative IPC: 0.822292 (Simulation time: 0 hr 8 min 17 sec) 
Heartbeat CPU 0 instructions: 18000001 cycles: 14180753 heartbeat IPC: 1.08536 cumulative IPC: 0.847984 (Simulation time: 0 hr 8 min 44 sec) 
Heartbeat CPU 0 instructions: 19000002 cycles: 15125799 heartbeat IPC: 1.05815 cumulative IPC: 0.86712 (Simulation time: 0 hr 9 min 11 sec) 
Heartbeat CPU 0 instructions: 20000000 cycles: 16328373 heartbeat IPC: 0.831548 cumulative IPC: 0.863426 (Simulation time: 0 hr 9 min 38 sec) 
Heartbeat CPU 0 instructions: 21000000 cycles: 17824271 heartbeat IPC: 0.668495 cumulative IPC: 0.841129 (Simulation time: 0 hr 10 min 6 sec) 
Heartbeat CPU 0 instructions: 22000000 cycles: 19239856 heartbeat IPC: 0.706422 cumulative IPC: 0.827972 (Simulation time: 0 hr 10 min 32 sec) 
Heartbeat CPU 0 instructions: 23000000 cycles: 20377120 heartbeat IPC: 0.879303 cumulative IPC: 0.831707 (Simulation time: 0 hr 11 min 0 sec) 
Heartbeat CPU 0 instructions: 24000000 cycles: 21636706 heartbeat IPC: 0.793912 cumulative IPC: 0.828888 (Simulation time: 0 hr 11 min 27 sec) 
Heartbeat CPU 0 instructions: 25000001 cycles: 22980438 heartbeat IPC: 0.744197 cumulative IPC: 0.822647 (Simulation time: 0 hr 11 min 54 sec) 
Heartbeat CPU 0 instructions: 26000002 cycles: 23961456 heartbeat IPC: 1.01935 cumulative IPC: 0.83269 (Simulation time: 0 hr 12 min 20 sec) 
Heartbeat CPU 0 instructions: 27000000 cycles: 24963410 heartbeat IPC: 0.998048 cumulative IPC: 0.840885 (Simulation time: 0 hr 12 min 48 sec) 
Heartbeat CPU 0 instructions: 28000000 cycles: 26245250 heartbeat IPC: 0.780129 cumulative IPC: 0.837262 (Simulation time: 0 hr 13 min 17 sec) 
Heartbeat CPU 0 instructions: 29000003 cycles: 27317215 heartbeat IPC: 0.932869 cumulative IPC: 0.841803 (Simulation time: 0 hr 13 min 45 sec) 
Heartbeat CPU 0 instructions: 30000000 cycles: 28634468 heartbeat IPC: 0.759153 cumulative IPC: 0.837245 (Simulation time: 0 hr 14 min 16 sec) 
Heartbeat CPU 0 instructions: 31000000 cycles: 29928891 heartbeat IPC: 0.772545 cumulative IPC: 0.83392 (Simulation time: 0 hr 14 min 43 sec) 
Heartbeat CPU 0 instructions: 32000000 cycles: 31547236 heartbeat IPC: 0.617915 cumulative IPC: 0.820876 (Simulation time: 0 hr 15 min 9 sec) 
Heartbeat CPU 0 instructions: 33000000 cycles: 32613136 heartbeat IPC: 0.938174 cumulative IPC: 0.825363 (Simulation time: 0 hr 15 min 35 sec) 
Heartbeat CPU 0 instructions: 34000001 cycles: 33621026 heartbeat IPC: 0.992173 cumulative IPC: 0.831186 (Simulation time: 0 hr 16 min 0 sec) 
Heartbeat CPU 0 instructions: 35000003 cycles: 34636425 heartbeat IPC: 0.984837 cumulative IPC: 0.836405 (Simulation time: 0 hr 16 min 27 sec) 
Heartbeat CPU 0 instructions: 36000000 cycles: 35645473 heartbeat IPC: 0.99103 cumulative IPC: 0.841455 (Simulation time: 0 hr 16 min 54 sec) 
Heartbeat CPU 0 instructions: 37000003 cycles: 36888927 heartbeat IPC: 0.804214 cumulative IPC: 0.840014 (Simulation time: 0 hr 17 min 22 sec) 
Heartbeat CPU 0 instructions: 38000001 cycles: 38405256 heartbeat IPC: 0.659486 cumulative IPC: 0.831881 (Simulation time: 0 hr 17 min 49 sec) 
Heartbeat CPU 0 instructions: 39000002 cycles: 39520740 heartbeat IPC: 0.896473 cumulative IPC: 0.833953 (Simulation time: 0 hr 18 min 16 sec) 
Heartbeat CPU 0 instructions: 40000000 cycles: 40556834 heartbeat IPC: 0.965161 cumulative IPC: 0.83775 (Simulation time: 0 hr 18 min 46 sec) 
Heartbeat CPU 0 instructions: 41000002 cycles: 42027802 heartbeat IPC: 0.679826 cumulative IPC: 0.831519 (Simulation time: 0 hr 19 min 14 sec) 
Heartbeat CPU 0 instructions: 42000000 cycles: 43312128 heartbeat IPC: 0.778617 cumulative IPC: 0.829757 (Simulation time: 0 hr 19 min 44 sec) 
Heartbeat CPU 0 instructions: 43000001 cycles: 44458414 heartbeat IPC: 0.872384 cumulative IPC: 0.830987 (Simulation time: 0 hr 20 min 14 sec) 
Heartbeat CPU 0 instructions: 44000000 cycles: 45608979 heartbeat IPC: 0.869137 cumulative IPC: 0.832061 (Simulation time: 0 hr 20 min 42 sec) 
Heartbeat CPU 0 instructions: 45000000 cycles: 46683700 heartbeat IPC: 0.930474 cumulative IPC: 0.834583 (Simulation time: 0 hr 21 min 10 sec) 
Heartbeat CPU 0 instructions: 46000000 cycles: 47800231 heartbeat IPC: 0.895631 cumulative IPC: 0.836167 (Simulation time: 0 hr 21 min 38 sec) 
Heartbeat CPU 0 instructions: 47000003 cycles: 48805195 heartbeat IPC: 0.995063 cumulative IPC: 0.839791 (Simulation time: 0 hr 22 min 7 sec) 
Heartbeat CPU 0 instructions: 48000000 cycles: 50381718 heartbeat IPC: 0.634305 cumulative IPC: 0.832692 (Simulation time: 0 hr 22 min 35 sec) 
Heartbeat CPU 0 instructions: 49000003 cycles: 51983150 heartbeat IPC: 0.624443 cumulative IPC: 0.825632 (Simulation time: 0 hr 23 min 1 sec) 
Heartbeat CPU 0 instructions: 50000000 cycles: 53112589 heartbeat IPC: 0.885393 cumulative IPC: 0.827028 (Simulation time: 0 hr 23 min 32 sec) 
Heartbeat CPU 0 instructions: 51000000 cycles: 54143118 heartbeat IPC: 0.970375 cumulative IPC: 0.830018 (Simulation time: 0 hr 24 min 0 sec) 
Heartbeat CPU 0 instructions: 52000000 cycles: 55161865 heartbeat IPC: 0.981598 cumulative IPC: 0.833081 (Simulation time: 0 hr 24 min 29 sec) 
Heartbeat CPU 0 instructions: 53000001 cycles: 56135285 heartbeat IPC: 1.02731 cumulative IPC: 0.83676 (Simulation time: 0 hr 24 min 59 sec) 
Heartbeat CPU 0 instructions: 54000001 cycles: 57147406 heartbeat IPC: 0.988024 cumulative IPC: 0.839682 (Simulation time: 0 hr 25 min 27 sec) 
Heartbeat CPU 0 instructions: 55000001 cycles: 58374647 heartbeat IPC: 0.814836 cumulative IPC: 0.839113 (Simulation time: 0 hr 25 min 55 sec) 
Heartbeat CPU 0 instructions: 56000000 cycles: 59562845 heartbeat IPC: 0.84161 cumulative IPC: 0.839167 (Simulation time: 0 hr 26 min 24 sec) 
Heartbeat CPU 0 instructions: 57000003 cycles: 60942585 heartbeat IPC: 0.724776 cumulative IPC: 0.836359 (Simulation time: 0 hr 26 min 53 sec) 
Heartbeat CPU 0 instructions: 58000001 cycles: 62519230 heartbeat IPC: 0.634257 cumulative IPC: 0.830843 (Simulation time: 0 hr 27 min 20 sec) 
Heartbeat CPU 0 instructions: 59000003 cycles: 63831735 heartbeat IPC: 0.761903 cumulative IPC: 0.829312 (Simulation time: 0 hr 27 min 45 sec) 
Heartbeat CPU 0 instructions: 60000000 cycles: 65422433 heartbeat IPC: 0.628653 cumulative IPC: 0.824051 (Simulation time: 0 hr 28 min 13 sec) 
Heartbeat CPU 0 instructions: 61000003 cycles: 67142522 heartbeat IPC: 0.581367 cumulative IPC: 0.817361 (Simulation time: 0 hr 28 min 39 sec) 
Heartbeat CPU 0 instructions: 62000002 cycles: 68689693 heartbeat IPC: 0.64634 cumulative IPC: 0.813223 (Simulation time: 0 hr 29 min 7 sec) 
Heartbeat CPU 0 instructions: 63000003 cycles: 70080997 heartbeat IPC: 0.718751 cumulative IPC: 0.811211 (Simulation time: 0 hr 29 min 38 sec) 
Heartbeat CPU 0 instructions: 64000000 cycles: 71649057 heartbeat IPC: 0.637729 cumulative IPC: 0.807145 (Simulation time: 0 hr 30 min 5 sec) 
Heartbeat CPU 0 instructions: 65000003 cycles: 72910630 heartbeat IPC: 0.792664 cumulative IPC: 0.806877 (Simulation time: 0 hr 30 min 32 sec) 
Heartbeat CPU 0 instructions: 66000000 cycles: 74240507 heartbeat IPC: 0.751947 cumulative IPC: 0.805826 (Simulation time: 0 hr 31 min 2 sec) 
Heartbeat CPU 0 instructions: 67000000 cycles: 75183096 heartbeat IPC: 1.06091 cumulative IPC: 0.80924 (Simulation time: 0 hr 31 min 27 sec) 
Heartbeat CPU 0 instructions: 68000000 cycles: 76585332 heartbeat IPC: 0.713147 cumulative IPC: 0.807364 (Simulation time: 0 hr 31 min 53 sec) 
Heartbeat CPU 0 instructions: 69000000 cycles: 78158575 heartbeat IPC: 0.63563 cumulative IPC: 0.803684 (Simulation time: 0 hr 32 min 20 sec) 
Heartbeat CPU 0 instructions: 70000002 cycles: 79630748 heartbeat IPC: 0.679269 cumulative IPC: 0.801238 (Simulation time: 0 hr 32 min 51 sec) 
Heartbeat CPU 0 instructions: 71000000 cycles: 81196571 heartbeat IPC: 0.638641 cumulative IPC: 0.797908 (Simulation time: 0 hr 33 min 17 sec) 
Heartbeat CPU 0 instructions: 72000000 cycles: 82569112 heartbeat IPC: 0.728576 cumulative IPC: 0.796685 (Simulation time: 0 hr 33 min 44 sec) 
Heartbeat CPU 0 instructions: 73000001 cycles: 83857619 heartbeat IPC: 0.776093 cumulative IPC: 0.796349 (Simulation time: 0 hr 34 min 12 sec) 
Heartbeat CPU 0 instructions: 74000000 cycles: 85013154 heartbeat IPC: 0.865399 cumulative IPC: 0.797343 (Simulation time: 0 hr 34 min 42 sec) 
Heartbeat CPU 0 instructions: 75000001 cycles: 86429424 heartbeat IPC: 0.706081 cumulative IPC: 0.795761 (Simulation time: 0 hr 35 min 9 sec) 
Heartbeat CPU 0 instructions: 76000000 cycles: 87569779 heartbeat IPC: 0.876919 cumulative IPC: 0.796878 (Simulation time: 0 hr 35 min 37 sec) 
Heartbeat CPU 0 instructions: 77000003 cycles: 88749582 heartbeat IPC: 0.847602 cumulative IPC: 0.797591 (Simulation time: 0 hr 36 min 4 sec) 
Heartbeat CPU 0 instructions: 78000000 cycles: 90082355 heartbeat IPC: 0.750313 cumulative IPC: 0.796852 (Simulation time: 0 hr 36 min 30 sec) 
Heartbeat CPU 0 instructions: 79000000 cycles: 91426410 heartbeat IPC: 0.744017 cumulative IPC: 0.796033 (Simulation time: 0 hr 37 min 0 sec) 
Heartbeat CPU 0 instructions: 80000000 cycles: 92814735 heartbeat IPC: 0.720292 cumulative IPC: 0.794839 (Simulation time: 0 hr 37 min 27 sec) 
Heartbeat CPU 0 instructions: 81000000 cycles: 94504920 heartbeat IPC: 0.591651 cumulative IPC: 0.791013 (Simulation time: 0 hr 37 min 54 sec) 
Heartbeat CPU 0 instructions: 82000002 cycles: 96050647 heartbeat IPC: 0.646946 cumulative IPC: 0.788574 (Simulation time: 0 hr 38 min 18 sec) 
Heartbeat CPU 0 instructions: 83000000 cycles: 97208932 heartbeat IPC: 0.863344 cumulative IPC: 0.789511 (Simulation time: 0 hr 38 min 46 sec) 
Heartbeat CPU 0 instructions: 84000000 cycles: 98168060 heartbeat IPC: 1.04261 cumulative IPC: 0.792109 (Simulation time: 0 hr 39 min 12 sec) 
Heartbeat CPU 0 instructions: 85000002 cycles: 99215748 heartbeat IPC: 0.954485 cumulative IPC: 0.79391 (Simulation time: 0 hr 39 min 42 sec) 
Heartbeat CPU 0 instructions: 86000002 cycles: 100193111 heartbeat IPC: 1.02316 cumulative IPC: 0.796258 (Simulation time: 0 hr 40 min 9 sec) 
Heartbeat CPU 0 instructions: 87000001 cycles: 101203169 heartbeat IPC: 0.990041 cumulative IPC: 0.798287 (Simulation time: 0 hr 40 min 38 sec) 
Heartbeat CPU 0 instructions: 88000000 cycles: 102499725 heartbeat IPC: 0.771273 cumulative IPC: 0.797929 (Simulation time: 0 hr 41 min 4 sec) 
Heartbeat CPU 0 instructions: 89000000 cycles: 104017001 heartbeat IPC: 0.659076 cumulative IPC: 0.795806 (Simulation time: 0 hr 41 min 33 sec) 
Heartbeat CPU 0 instructions: 90000002 cycles: 105510356 heartbeat IPC: 0.669634 cumulative IPC: 0.793936 (Simulation time: 0 hr 42 min 3 sec) 
Heartbeat CPU 0 instructions: 91000000 cycles: 107209690 heartbeat IPC: 0.588465 cumulative IPC: 0.790529 (Simulation time: 0 hr 42 min 31 sec) 
Heartbeat CPU 0 instructions: 92000000 cycles: 108705241 heartbeat IPC: 0.66865 cumulative IPC: 0.788775 (Simulation time: 0 hr 42 min 59 sec) 
Heartbeat CPU 0 instructions: 93000001 cycles: 109968942 heartbeat IPC: 0.791327 cumulative IPC: 0.788806 (Simulation time: 0 hr 43 min 29 sec) 
Heartbeat CPU 0 instructions: 94000000 cycles: 111710070 heartbeat IPC: 0.57434 cumulative IPC: 0.785315 (Simulation time: 0 hr 43 min 58 sec) 
Heartbeat CPU 0 instructions: 95000002 cycles: 113321436 heartbeat IPC: 0.620593 cumulative IPC: 0.78287 (Simulation time: 0 hr 44 min 23 sec) 
Heartbeat CPU 0 instructions: 96000000 cycles: 114926813 heartbeat IPC: 0.622905 cumulative IPC: 0.78054 (Simulation time: 0 hr 44 min 48 sec) 
Heartbeat CPU 0 instructions: 97000000 cycles: 116327941 heartbeat IPC: 0.713711 cumulative IPC: 0.7797 (Simulation time: 0 hr 45 min 15 sec) 
Heartbeat CPU 0 instructions: 98000000 cycles: 117610427 heartbeat IPC: 0.779736 cumulative IPC: 0.779701 (Simulation time: 0 hr 45 min 39 sec) 
Heartbeat CPU 0 instructions: 99000003 cycles: 118738111 heartbeat IPC: 0.886776 cumulative IPC: 0.78076 (Simulation time: 0 hr 46 min 7 sec) 
Heartbeat CPU 0 instructions: 100000000 cycles: 120215087 heartbeat IPC: 0.677057 cumulative IPC: 0.779433 (Simulation time: 0 hr 46 min 31 sec) 
Heartbeat CPU 0 instructions: 101000000 cycles: 121724196 heartbeat IPC: 0.662643 cumulative IPC: 0.777927 (Simulation time: 0 hr 46 min 55 sec) 
Heartbeat CPU 0 instructions: 102000001 cycles: 123419380 heartbeat IPC: 0.589907 cumulative IPC: 0.775241 (Simulation time: 0 hr 47 min 17 sec) 
Heartbeat CPU 0 instructions: 103000002 cycles: 124740288 heartbeat IPC: 0.757056 cumulative IPC: 0.775041 (Simulation time: 0 hr 47 min 45 sec) 
Heartbeat CPU 0 instructions: 104000000 cycles: 126446905 heartbeat IPC: 0.585953 cumulative IPC: 0.772389 (Simulation time: 0 hr 48 min 7 sec) 
Heartbeat CPU 0 instructions: 105000002 cycles: 127429280 heartbeat IPC: 1.01794 cumulative IPC: 0.774356 (Simulation time: 0 hr 48 min 30 sec) 
Heartbeat CPU 0 instructions: 106000000 cycles: 128963972 heartbeat IPC: 0.651595 cumulative IPC: 0.772839 (Simulation time: 0 hr 48 min 52 sec) 
Heartbeat CPU 0 instructions: 107000002 cycles: 130525807 heartbeat IPC: 0.640274 cumulative IPC: 0.771193 (Simulation time: 0 hr 49 min 15 sec) 
Heartbeat CPU 0 instructions: 108000000 cycles: 131852563 heartbeat IPC: 0.753717 cumulative IPC: 0.77101 (Simulation time: 0 hr 49 min 43 sec) 
Heartbeat CPU 0 instructions: 109000002 cycles: 133552706 heartbeat IPC: 0.588187 cumulative IPC: 0.768597 (Simulation time: 0 hr 50 min 7 sec) 
Heartbeat CPU 0 instructions: 110000000 cycles: 134790836 heartbeat IPC: 0.807668 cumulative IPC: 0.768969 (Simulation time: 0 hr 50 min 31 sec) 
Finished CPU 0 instructions: 100000003 cycles: 130044227 cummulative IPC: 0.768969 (Simulation time: 0 hr 50 min 31 sec) 

ChampSim completed all CPUs

Region of Interest Statistics

CPU 0 cummulative IPC: 0.768969 instructions: 100000003 cycles: 130044227
LLC TOTAL     ACCESS:    1571527  HIT:    1427828  MISS:     143699
LLC LOAD      ACCESS:     429786  HIT:     405934  MISS:      23852
LLC RFO       ACCESS:     294161  HIT:     230625  MISS:      63536
LLC PREFETCH  ACCESS:     521610  HIT:     470345  MISS:      51265
LLC WRITEBACK ACCESS:     325970  HIT:     320924  MISS:       5046
Insertion Distribution: 
	LOAD 25825 0 7808 127 
	RFO 43255 0 26613 6356 
	PREF 0 15326 38141 11608 
	WRITEBACK 0 0 0 5808 
Total Prefetch Downgrades: 21677
