
*** ChampSim Multicore Out-of-Order Simulator ***

Warmup Instructions: 10000000
Simulation Instructions: 100000000
Configuration: 2
Number of CPUs: 1
LLC sets: 2048
LLC ways: 16
Off-chip DRAM Channels: 1 Width: 64-bit Data Rate: 1600 MT/s

CPU 0 runs /datasets/cs240c-wi22-a00-public/data/Assignment2-gz/mcf_46B.trace.gz
CPU 0 L1D next line prefetcher
CPU 0 L2C IP-based stride prefetcher
Initialize SRRIP state
Heartbeat CPU 0 instructions: 1000002 cycles: 492158 heartbeat IPC: 2.03187 cumulative IPC: 2.03187 (Simulation time: 0 hr 0 min 36 sec) 
Heartbeat CPU 0 instructions: 2000002 cycles: 987213 heartbeat IPC: 2.01998 cumulative IPC: 2.02591 (Simulation time: 0 hr 1 min 13 sec) 
Heartbeat CPU 0 instructions: 3000003 cycles: 1514957 heartbeat IPC: 1.89486 cumulative IPC: 1.98026 (Simulation time: 0 hr 1 min 51 sec) 
Heartbeat CPU 0 instructions: 4000000 cycles: 2036018 heartbeat IPC: 1.91916 cumulative IPC: 1.96462 (Simulation time: 0 hr 2 min 28 sec) 
Heartbeat CPU 0 instructions: 5000000 cycles: 2529459 heartbeat IPC: 2.02658 cumulative IPC: 1.97671 (Simulation time: 0 hr 3 min 5 sec) 
Heartbeat CPU 0 instructions: 6000002 cycles: 3032198 heartbeat IPC: 1.98911 cumulative IPC: 1.97876 (Simulation time: 0 hr 3 min 41 sec) 
Heartbeat CPU 0 instructions: 7000001 cycles: 3578046 heartbeat IPC: 1.83201 cumulative IPC: 1.95638 (Simulation time: 0 hr 4 min 19 sec) 
Heartbeat CPU 0 instructions: 8000000 cycles: 4068648 heartbeat IPC: 2.03831 cumulative IPC: 1.96626 (Simulation time: 0 hr 4 min 54 sec) 
Heartbeat CPU 0 instructions: 9000001 cycles: 4551934 heartbeat IPC: 2.06917 cumulative IPC: 1.97718 (Simulation time: 0 hr 5 min 29 sec) 
Heartbeat CPU 0 instructions: 10000001 cycles: 5090207 heartbeat IPC: 1.85779 cumulative IPC: 1.96456 (Simulation time: 0 hr 6 min 5 sec) 

Warmup complete CPU 0 instructions: 10000001 cycles: 5090207 (Simulation time: 0 hr 6 min 5 sec) 

Heartbeat CPU 0 instructions: 11000002 cycles: 16259082 heartbeat IPC: 0.0895346 cumulative IPC: 0.0895346 (Simulation time: 0 hr 7 min 6 sec) 
Heartbeat CPU 0 instructions: 12000000 cycles: 20401193 heartbeat IPC: 0.241422 cumulative IPC: 0.130625 (Simulation time: 0 hr 7 min 48 sec) 
Heartbeat CPU 0 instructions: 13000000 cycles: 27746062 heartbeat IPC: 0.136149 cumulative IPC: 0.132416 (Simulation time: 0 hr 8 min 38 sec) 
Heartbeat CPU 0 instructions: 14000003 cycles: 42573236 heartbeat IPC: 0.0674439 cumulative IPC: 0.106715 (Simulation time: 0 hr 9 min 57 sec) 
Heartbeat CPU 0 instructions: 15000000 cycles: 46819874 heartbeat IPC: 0.23548 cumulative IPC: 0.119819 (Simulation time: 0 hr 10 min 44 sec) 
Heartbeat CPU 0 instructions: 16000000 cycles: 50590532 heartbeat IPC: 0.265206 cumulative IPC: 0.131867 (Simulation time: 0 hr 11 min 27 sec) 
Heartbeat CPU 0 instructions: 17000002 cycles: 66275093 heartbeat IPC: 0.0637571 cumulative IPC: 0.114407 (Simulation time: 0 hr 12 min 36 sec) 
Heartbeat CPU 0 instructions: 18000001 cycles: 71617614 heartbeat IPC: 0.187177 cumulative IPC: 0.120251 (Simulation time: 0 hr 13 min 24 sec) 
Heartbeat CPU 0 instructions: 19000002 cycles: 76145978 heartbeat IPC: 0.220831 cumulative IPC: 0.126661 (Simulation time: 0 hr 14 min 17 sec) 
Heartbeat CPU 0 instructions: 20000000 cycles: 88573734 heartbeat IPC: 0.0804649 cumulative IPC: 0.119784 (Simulation time: 0 hr 15 min 21 sec) 
Heartbeat CPU 0 instructions: 21000002 cycles: 104962674 heartbeat IPC: 0.0610169 cumulative IPC: 0.11014 (Simulation time: 0 hr 16 min 36 sec) 
Heartbeat CPU 0 instructions: 22000002 cycles: 109226783 heartbeat IPC: 0.234516 cumulative IPC: 0.115233 (Simulation time: 0 hr 17 min 20 sec) 
Heartbeat CPU 0 instructions: 23000001 cycles: 113034893 heartbeat IPC: 0.262597 cumulative IPC: 0.120432 (Simulation time: 0 hr 18 min 6 sec) 
Heartbeat CPU 0 instructions: 24000000 cycles: 126233358 heartbeat IPC: 0.0757663 cumulative IPC: 0.115566 (Simulation time: 0 hr 19 min 18 sec) 
Heartbeat CPU 0 instructions: 25000002 cycles: 134062042 heartbeat IPC: 0.127736 cumulative IPC: 0.116304 (Simulation time: 0 hr 20 min 15 sec) 
Heartbeat CPU 0 instructions: 26000001 cycles: 137856178 heartbeat IPC: 0.263564 cumulative IPC: 0.120513 (Simulation time: 0 hr 20 min 58 sec) 
Heartbeat CPU 0 instructions: 27000000 cycles: 147543392 heartbeat IPC: 0.103229 cumulative IPC: 0.119337 (Simulation time: 0 hr 21 min 56 sec) 
Heartbeat CPU 0 instructions: 28000000 cycles: 158882468 heartbeat IPC: 0.0881906 cumulative IPC: 0.117041 (Simulation time: 0 hr 23 min 0 sec) 
Heartbeat CPU 0 instructions: 29000001 cycles: 163179042 heartbeat IPC: 0.232744 cumulative IPC: 0.120186 (Simulation time: 0 hr 23 min 45 sec) 
Heartbeat CPU 0 instructions: 30000000 cycles: 170321584 heartbeat IPC: 0.140006 cumulative IPC: 0.121042 (Simulation time: 0 hr 24 min 34 sec) 
Heartbeat CPU 0 instructions: 31000001 cycles: 184244308 heartbeat IPC: 0.0718251 cumulative IPC: 0.117218 (Simulation time: 0 hr 25 min 41 sec) 
Heartbeat CPU 0 instructions: 32000000 cycles: 188545179 heartbeat IPC: 0.232511 cumulative IPC: 0.11992 (Simulation time: 0 hr 26 min 26 sec) 
Heartbeat CPU 0 instructions: 33000000 cycles: 194629537 heartbeat IPC: 0.164356 cumulative IPC: 0.121347 (Simulation time: 0 hr 27 min 17 sec) 
Heartbeat CPU 0 instructions: 34000000 cycles: 209942778 heartbeat IPC: 0.065303 cumulative IPC: 0.117157 (Simulation time: 0 hr 28 min 26 sec) 
Heartbeat CPU 0 instructions: 35000000 cycles: 216037316 heartbeat IPC: 0.164081 cumulative IPC: 0.118513 (Simulation time: 0 hr 29 min 12 sec) 
Heartbeat CPU 0 instructions: 36000000 cycles: 221967498 heartbeat IPC: 0.168629 cumulative IPC: 0.119883 (Simulation time: 0 hr 29 min 58 sec) 
Heartbeat CPU 0 instructions: 37000002 cycles: 232233941 heartbeat IPC: 0.0974049 cumulative IPC: 0.118867 (Simulation time: 0 hr 30 min 54 sec) 
Heartbeat CPU 0 instructions: 38000001 cycles: 243198450 heartbeat IPC: 0.0912033 cumulative IPC: 0.117594 (Simulation time: 0 hr 31 min 53 sec) 
Heartbeat CPU 0 instructions: 39000000 cycles: 247277060 heartbeat IPC: 0.245181 cumulative IPC: 0.119742 (Simulation time: 0 hr 32 min 35 sec) 
Heartbeat CPU 0 instructions: 40000000 cycles: 253039747 heartbeat IPC: 0.17353 cumulative IPC: 0.120992 (Simulation time: 0 hr 33 min 22 sec) 
Heartbeat CPU 0 instructions: 41000000 cycles: 268041341 heartbeat IPC: 0.0666596 cumulative IPC: 0.117893 (Simulation time: 0 hr 34 min 37 sec) 
Heartbeat CPU 0 instructions: 42000001 cycles: 272828923 heartbeat IPC: 0.208874 cumulative IPC: 0.11952 (Simulation time: 0 hr 35 min 23 sec) 
Heartbeat CPU 0 instructions: 43000000 cycles: 276783859 heartbeat IPC: 0.252848 cumulative IPC: 0.12146 (Simulation time: 0 hr 36 min 6 sec) 
Heartbeat CPU 0 instructions: 44000000 cycles: 290359095 heartbeat IPC: 0.0736635 cumulative IPC: 0.119186 (Simulation time: 0 hr 37 min 14 sec) 
Heartbeat CPU 0 instructions: 45000001 cycles: 297884079 heartbeat IPC: 0.132891 cumulative IPC: 0.119538 (Simulation time: 0 hr 38 min 14 sec) 
Heartbeat CPU 0 instructions: 46000001 cycles: 301951349 heartbeat IPC: 0.245865 cumulative IPC: 0.121269 (Simulation time: 0 hr 38 min 57 sec) 
Heartbeat CPU 0 instructions: 47000002 cycles: 311471584 heartbeat IPC: 0.10504 cumulative IPC: 0.120765 (Simulation time: 0 hr 39 min 56 sec) 
Heartbeat CPU 0 instructions: 48000000 cycles: 323227785 heartbeat IPC: 0.0850613 cumulative IPC: 0.119445 (Simulation time: 0 hr 41 min 1 sec) 
Heartbeat CPU 0 instructions: 49000000 cycles: 327722206 heartbeat IPC: 0.222498 cumulative IPC: 0.120881 (Simulation time: 0 hr 41 min 42 sec) 
Heartbeat CPU 0 instructions: 50000001 cycles: 333878964 heartbeat IPC: 0.162423 cumulative IPC: 0.121659 (Simulation time: 0 hr 42 min 31 sec) 
Heartbeat CPU 0 instructions: 51000001 cycles: 348794730 heartbeat IPC: 0.0670432 cumulative IPC: 0.119289 (Simulation time: 0 hr 43 min 46 sec) 
Heartbeat CPU 0 instructions: 52000000 cycles: 353323399 heartbeat IPC: 0.220815 cumulative IPC: 0.120609 (Simulation time: 0 hr 44 min 33 sec) 
Heartbeat CPU 0 instructions: 53000000 cycles: 357381745 heartbeat IPC: 0.246406 cumulative IPC: 0.122058 (Simulation time: 0 hr 45 min 17 sec) 
Heartbeat CPU 0 instructions: 54000002 cycles: 373361094 heartbeat IPC: 0.0625809 cumulative IPC: 0.119477 (Simulation time: 0 hr 46 min 28 sec) 
Heartbeat CPU 0 instructions: 55000002 cycles: 378597452 heartbeat IPC: 0.190972 cumulative IPC: 0.12048 (Simulation time: 0 hr 47 min 13 sec) 
Heartbeat CPU 0 instructions: 56000000 cycles: 382789010 heartbeat IPC: 0.238574 cumulative IPC: 0.12179 (Simulation time: 0 hr 47 min 55 sec) 
Heartbeat CPU 0 instructions: 57000000 cycles: 396445354 heartbeat IPC: 0.073226 cumulative IPC: 0.120096 (Simulation time: 0 hr 48 min 58 sec) 
Heartbeat CPU 0 instructions: 58000000 cycles: 404034097 heartbeat IPC: 0.131774 cumulative IPC: 0.120318 (Simulation time: 0 hr 49 min 48 sec) 
Heartbeat CPU 0 instructions: 59000002 cycles: 408145960 heartbeat IPC: 0.243199 cumulative IPC: 0.121571 (Simulation time: 0 hr 50 min 28 sec) 
Heartbeat CPU 0 instructions: 60000000 cycles: 420055021 heartbeat IPC: 0.0839695 cumulative IPC: 0.120492 (Simulation time: 0 hr 51 min 22 sec) 
Heartbeat CPU 0 instructions: 61000002 cycles: 429710509 heartbeat IPC: 0.103568 cumulative IPC: 0.120107 (Simulation time: 0 hr 52 min 9 sec) 
Heartbeat CPU 0 instructions: 62000001 cycles: 433815242 heartbeat IPC: 0.243621 cumulative IPC: 0.12129 (Simulation time: 0 hr 52 min 42 sec) 
Heartbeat CPU 0 instructions: 63000001 cycles: 443966633 heartbeat IPC: 0.0985087 cumulative IPC: 0.120763 (Simulation time: 0 hr 53 min 26 sec) 
Heartbeat CPU 0 instructions: 64000000 cycles: 455642611 heartbeat IPC: 0.0856458 cumulative IPC: 0.119853 (Simulation time: 0 hr 54 min 14 sec) 
Heartbeat CPU 0 instructions: 65000002 cycles: 460791408 heartbeat IPC: 0.194221 cumulative IPC: 0.120693 (Simulation time: 0 hr 54 min 47 sec) 
Heartbeat CPU 0 instructions: 66000000 cycles: 466928814 heartbeat IPC: 0.162935 cumulative IPC: 0.121254 (Simulation time: 0 hr 55 min 17 sec) 
Heartbeat CPU 0 instructions: 67000002 cycles: 483270135 heartbeat IPC: 0.0611947 cumulative IPC: 0.119202 (Simulation time: 0 hr 56 min 4 sec) 
Heartbeat CPU 0 instructions: 68000000 cycles: 487729448 heartbeat IPC: 0.224249 cumulative IPC: 0.120173 (Simulation time: 0 hr 56 min 31 sec) 
Heartbeat CPU 0 instructions: 69000000 cycles: 491686532 heartbeat IPC: 0.252711 cumulative IPC: 0.12125 (Simulation time: 0 hr 56 min 58 sec) 
Heartbeat CPU 0 instructions: 70000001 cycles: 506262101 heartbeat IPC: 0.068608 cumulative IPC: 0.119719 (Simulation time: 0 hr 57 min 41 sec) 
Heartbeat CPU 0 instructions: 71000002 cycles: 514943798 heartbeat IPC: 0.115185 cumulative IPC: 0.119642 (Simulation time: 0 hr 58 min 14 sec) 
Heartbeat CPU 0 instructions: 72000000 cycles: 519647254 heartbeat IPC: 0.212609 cumulative IPC: 0.120492 (Simulation time: 0 hr 58 min 40 sec) 
Heartbeat CPU 0 instructions: 73000002 cycles: 528794223 heartbeat IPC: 0.109326 cumulative IPC: 0.120297 (Simulation time: 0 hr 59 min 13 sec) 
Heartbeat CPU 0 instructions: 74000001 cycles: 540902788 heartbeat IPC: 0.0825861 cumulative IPC: 0.119445 (Simulation time: 0 hr 59 min 48 sec) 
Heartbeat CPU 0 instructions: 75000001 cycles: 545339164 heartbeat IPC: 0.225409 cumulative IPC: 0.120315 (Simulation time: 1 hr 0 min 12 sec) 
Heartbeat CPU 0 instructions: 76000000 cycles: 551236511 heartbeat IPC: 0.169568 cumulative IPC: 0.120847 (Simulation time: 1 hr 0 min 35 sec) 
Heartbeat CPU 0 instructions: 77000001 cycles: 567849194 heartbeat IPC: 0.060195 cumulative IPC: 0.119056 (Simulation time: 1 hr 1 min 10 sec) 
Heartbeat CPU 0 instructions: 78000002 cycles: 572609744 heartbeat IPC: 0.21006 cumulative IPC: 0.11982 (Simulation time: 1 hr 1 min 29 sec) 
Heartbeat CPU 0 instructions: 79000001 cycles: 576834879 heartbeat IPC: 0.236679 cumulative IPC: 0.120683 (Simulation time: 1 hr 1 min 47 sec) 
Heartbeat CPU 0 instructions: 80000000 cycles: 590417817 heartbeat IPC: 0.0736217 cumulative IPC: 0.119591 (Simulation time: 1 hr 2 min 13 sec) 
Heartbeat CPU 0 instructions: 81000000 cycles: 597942891 heartbeat IPC: 0.132889 cumulative IPC: 0.11976 (Simulation time: 1 hr 2 min 32 sec) 
Heartbeat CPU 0 instructions: 82000000 cycles: 602665903 heartbeat IPC: 0.211729 cumulative IPC: 0.120487 (Simulation time: 1 hr 2 min 47 sec) 
Heartbeat CPU 0 instructions: 83000001 cycles: 612462924 heartbeat IPC: 0.102072 cumulative IPC: 0.12019 (Simulation time: 1 hr 3 min 4 sec) 
Heartbeat CPU 0 instructions: 84000000 cycles: 624155886 heartbeat IPC: 0.0855214 cumulative IPC: 0.119535 (Simulation time: 1 hr 3 min 18 sec) 
Heartbeat CPU 0 instructions: 85000001 cycles: 628325084 heartbeat IPC: 0.239855 cumulative IPC: 0.12034 (Simulation time: 1 hr 3 min 26 sec) 
Heartbeat CPU 0 instructions: 86000000 cycles: 636095557 heartbeat IPC: 0.128692 cumulative IPC: 0.120443 (Simulation time: 1 hr 3 min 36 sec) 
Heartbeat CPU 0 instructions: 87000000 cycles: 651222630 heartbeat IPC: 0.0661066 cumulative IPC: 0.119171 (Simulation time: 1 hr 3 min 48 sec) 
Heartbeat CPU 0 instructions: 88000000 cycles: 657348618 heartbeat IPC: 0.163239 cumulative IPC: 0.119585 (Simulation time: 1 hr 3 min 55 sec) 
Heartbeat CPU 0 instructions: 89000000 cycles: 661418016 heartbeat IPC: 0.245737 cumulative IPC: 0.120367 (Simulation time: 1 hr 4 min 1 sec) 
Heartbeat CPU 0 instructions: 90000003 cycles: 673448991 heartbeat IPC: 0.083119 cumulative IPC: 0.119696 (Simulation time: 1 hr 4 min 11 sec) 
Heartbeat CPU 0 instructions: 91000000 cycles: 682434972 heartbeat IPC: 0.111284 cumulative IPC: 0.119585 (Simulation time: 1 hr 4 min 20 sec) 
Heartbeat CPU 0 instructions: 92000000 cycles: 686558111 heartbeat IPC: 0.242534 cumulative IPC: 0.120328 (Simulation time: 1 hr 4 min 27 sec) 
Heartbeat CPU 0 instructions: 93000002 cycles: 695505902 heartbeat IPC: 0.11176 cumulative IPC: 0.120217 (Simulation time: 1 hr 4 min 35 sec) 
Heartbeat CPU 0 instructions: 94000002 cycles: 707472649 heartbeat IPC: 0.0835649 cumulative IPC: 0.119593 (Simulation time: 1 hr 4 min 43 sec) 
Heartbeat CPU 0 instructions: 95000000 cycles: 713161007 heartbeat IPC: 0.175797 cumulative IPC: 0.120044 (Simulation time: 1 hr 4 min 48 sec) 
Heartbeat CPU 0 instructions: 96000000 cycles: 718617652 heartbeat IPC: 0.183263 cumulative IPC: 0.120528 (Simulation time: 1 hr 4 min 54 sec) 
Heartbeat CPU 0 instructions: 97000000 cycles: 734234139 heartbeat IPC: 0.0640349 cumulative IPC: 0.119318 (Simulation time: 1 hr 5 min 3 sec) 
Heartbeat CPU 0 instructions: 98000002 cycles: 738891487 heartbeat IPC: 0.214715 cumulative IPC: 0.119923 (Simulation time: 1 hr 5 min 9 sec) 
Heartbeat CPU 0 instructions: 99000002 cycles: 743434122 heartbeat IPC: 0.220137 cumulative IPC: 0.12054 (Simulation time: 1 hr 5 min 15 sec) 
Heartbeat CPU 0 instructions: 100000000 cycles: 757891654 heartbeat IPC: 0.069168 cumulative IPC: 0.119553 (Simulation time: 1 hr 5 min 24 sec) 
Heartbeat CPU 0 instructions: 101000000 cycles: 764638134 heartbeat IPC: 0.148225 cumulative IPC: 0.119808 (Simulation time: 1 hr 5 min 31 sec) 
Heartbeat CPU 0 instructions: 102000003 cycles: 768739282 heartbeat IPC: 0.243835 cumulative IPC: 0.120474 (Simulation time: 1 hr 5 min 37 sec) 
Heartbeat CPU 0 instructions: 103000003 cycles: 781002495 heartbeat IPC: 0.0815447 cumulative IPC: 0.119859 (Simulation time: 1 hr 5 min 45 sec) 
Heartbeat CPU 0 instructions: 104000000 cycles: 792956058 heartbeat IPC: 0.0836568 cumulative IPC: 0.11931 (Simulation time: 1 hr 5 min 53 sec) 
Heartbeat CPU 0 instructions: 105000000 cycles: 797606952 heartbeat IPC: 0.215012 cumulative IPC: 0.119871 (Simulation time: 1 hr 5 min 58 sec) 
Heartbeat CPU 0 instructions: 106000000 cycles: 801645593 heartbeat IPC: 0.247608 cumulative IPC: 0.120519 (Simulation time: 1 hr 6 min 3 sec) 
Heartbeat CPU 0 instructions: 107000002 cycles: 817600216 heartbeat IPC: 0.0626779 cumulative IPC: 0.119383 (Simulation time: 1 hr 6 min 12 sec) 
Heartbeat CPU 0 instructions: 108000000 cycles: 822978195 heartbeat IPC: 0.185943 cumulative IPC: 0.119821 (Simulation time: 1 hr 6 min 17 sec) 
Heartbeat CPU 0 instructions: 109000001 cycles: 827210301 heartbeat IPC: 0.236289 cumulative IPC: 0.12042 (Simulation time: 1 hr 6 min 23 sec) 
Heartbeat CPU 0 instructions: 110000002 cycles: 837183073 heartbeat IPC: 0.100273 cumulative IPC: 0.120179 (Simulation time: 1 hr 6 min 31 sec) 
Finished CPU 0 instructions: 100000001 cycles: 832092866 cummulative IPC: 0.120179 (Simulation time: 1 hr 6 min 31 sec) 

ChampSim completed all CPUs

Region of Interest Statistics

CPU 0 cummulative IPC: 0.120179 instructions: 100000001 cycles: 832092866
LLC TOTAL     ACCESS:   18778737  HIT:    8480219  MISS:   10298518
LLC LOAD      ACCESS:    8474990  HIT:    4252531  MISS:    4222459
LLC RFO       ACCESS:     206476  HIT:      63010  MISS:     143466
LLC PREFETCH  ACCESS:    7989301  HIT:    2342049  MISS:    5647252
LLC WRITEBACK ACCESS:    2107970  HIT:    1822629  MISS:     285341
Insertion Distribution: 
	LOAD 904306 0 2280101 1379296 
	RFO 57844 0 85576 13576 
	PREF 0 1659545 3042355 1529750 
	WRITEBACK 0 0 0 311695 
Total Prefetch Downgrades: 1464305
