
*** ChampSim Multicore Out-of-Order Simulator ***

Warmup Instructions: 10000000
Simulation Instructions: 100000000
Configuration: 2
Number of CPUs: 1
LLC sets: 2048
LLC ways: 16
Off-chip DRAM Channels: 1 Width: 64-bit Data Rate: 1600 MT/s

CPU 0 runs /datasets/cs240c-wi22-a00-public/data/Assignment2-gz/soplex_217B.trace.gz
CPU 0 L1D next line prefetcher
CPU 0 L2C IP-based stride prefetcher
Initialize SRRIP state
Heartbeat CPU 0 instructions: 1000002 cycles: 441476 heartbeat IPC: 2.26513 cumulative IPC: 2.26513 (Simulation time: 0 hr 0 min 36 sec) 
Heartbeat CPU 0 instructions: 2000003 cycles: 800575 heartbeat IPC: 2.78475 cumulative IPC: 2.49821 (Simulation time: 0 hr 1 min 6 sec) 
Heartbeat CPU 0 instructions: 3000002 cycles: 1245590 heartbeat IPC: 2.24711 cumulative IPC: 2.4085 (Simulation time: 0 hr 1 min 40 sec) 
Heartbeat CPU 0 instructions: 4000000 cycles: 1673617 heartbeat IPC: 2.3363 cumulative IPC: 2.39003 (Simulation time: 0 hr 2 min 15 sec) 
Heartbeat CPU 0 instructions: 5000001 cycles: 2057665 heartbeat IPC: 2.60384 cumulative IPC: 2.42994 (Simulation time: 0 hr 2 min 44 sec) 
Heartbeat CPU 0 instructions: 6000000 cycles: 2431943 heartbeat IPC: 2.67181 cumulative IPC: 2.46716 (Simulation time: 0 hr 3 min 12 sec) 
Heartbeat CPU 0 instructions: 7000003 cycles: 2960852 heartbeat IPC: 1.89069 cumulative IPC: 2.36419 (Simulation time: 0 hr 3 min 42 sec) 
Heartbeat CPU 0 instructions: 8000000 cycles: 3408779 heartbeat IPC: 2.2325 cumulative IPC: 2.34688 (Simulation time: 0 hr 4 min 18 sec) 
Heartbeat CPU 0 instructions: 9000001 cycles: 3833183 heartbeat IPC: 2.35625 cumulative IPC: 2.34792 (Simulation time: 0 hr 4 min 52 sec) 
Heartbeat CPU 0 instructions: 10000000 cycles: 4245537 heartbeat IPC: 2.4251 cumulative IPC: 2.35541 (Simulation time: 0 hr 5 min 24 sec) 

Warmup complete CPU 0 instructions: 10000004 cycles: 4245538 (Simulation time: 0 hr 5 min 24 sec) 

Heartbeat CPU 0 instructions: 11000002 cycles: 8102897 heartbeat IPC: 0.259245 cumulative IPC: 0.259244 (Simulation time: 0 hr 6 min 12 sec) 
Heartbeat CPU 0 instructions: 12000000 cycles: 10727090 heartbeat IPC: 0.381069 cumulative IPC: 0.308567 (Simulation time: 0 hr 6 min 54 sec) 
Heartbeat CPU 0 instructions: 13000000 cycles: 12064881 heartbeat IPC: 0.747501 cumulative IPC: 0.383663 (Simulation time: 0 hr 7 min 19 sec) 
Heartbeat CPU 0 instructions: 14000000 cycles: 14787803 heartbeat IPC: 0.367253 cumulative IPC: 0.379425 (Simulation time: 0 hr 7 min 54 sec) 
Heartbeat CPU 0 instructions: 15000000 cycles: 17392132 heartbeat IPC: 0.383976 cumulative IPC: 0.380326 (Simulation time: 0 hr 8 min 35 sec) 
Heartbeat CPU 0 instructions: 16000000 cycles: 21075419 heartbeat IPC: 0.271497 cumulative IPC: 0.356509 (Simulation time: 0 hr 9 min 26 sec) 
Heartbeat CPU 0 instructions: 17000002 cycles: 23361868 heartbeat IPC: 0.43736 cumulative IPC: 0.366179 (Simulation time: 0 hr 10 min 3 sec) 
Heartbeat CPU 0 instructions: 18000003 cycles: 25982317 heartbeat IPC: 0.381614 cumulative IPC: 0.36804 (Simulation time: 0 hr 10 min 43 sec) 
Heartbeat CPU 0 instructions: 19000000 cycles: 29539901 heartbeat IPC: 0.281089 cumulative IPC: 0.35581 (Simulation time: 0 hr 11 min 24 sec) 
Heartbeat CPU 0 instructions: 20000000 cycles: 30899662 heartbeat IPC: 0.735423 cumulative IPC: 0.375176 (Simulation time: 0 hr 11 min 47 sec) 
Heartbeat CPU 0 instructions: 21000000 cycles: 32344744 heartbeat IPC: 0.692002 cumulative IPC: 0.39147 (Simulation time: 0 hr 12 min 12 sec) 
Heartbeat CPU 0 instructions: 22000001 cycles: 35568209 heartbeat IPC: 0.310225 cumulative IPC: 0.383109 (Simulation time: 0 hr 12 min 50 sec) 
Heartbeat CPU 0 instructions: 23000003 cycles: 38743107 heartbeat IPC: 0.314971 cumulative IPC: 0.376838 (Simulation time: 0 hr 13 min 31 sec) 
Heartbeat CPU 0 instructions: 24000000 cycles: 42354340 heartbeat IPC: 0.276913 cumulative IPC: 0.367369 (Simulation time: 0 hr 14 min 20 sec) 
Heartbeat CPU 0 instructions: 25000001 cycles: 43789368 heartbeat IPC: 0.696851 cumulative IPC: 0.379326 (Simulation time: 0 hr 14 min 54 sec) 
Heartbeat CPU 0 instructions: 26000002 cycles: 47871373 heartbeat IPC: 0.244978 cumulative IPC: 0.366755 (Simulation time: 0 hr 15 min 42 sec) 
Heartbeat CPU 0 instructions: 27000002 cycles: 50347383 heartbeat IPC: 0.403876 cumulative IPC: 0.368749 (Simulation time: 0 hr 16 min 16 sec) 
Heartbeat CPU 0 instructions: 28000000 cycles: 51707449 heartbeat IPC: 0.735257 cumulative IPC: 0.379251 (Simulation time: 0 hr 16 min 42 sec) 
Heartbeat CPU 0 instructions: 29000002 cycles: 54476807 heartbeat IPC: 0.361095 cumulative IPC: 0.37825 (Simulation time: 0 hr 17 min 16 sec) 
Heartbeat CPU 0 instructions: 30000002 cycles: 57102420 heartbeat IPC: 0.380863 cumulative IPC: 0.37838 (Simulation time: 0 hr 17 min 56 sec) 
Heartbeat CPU 0 instructions: 31000000 cycles: 60293618 heartbeat IPC: 0.313361 cumulative IPC: 0.374678 (Simulation time: 0 hr 18 min 41 sec) 
Heartbeat CPU 0 instructions: 32000000 cycles: 62068441 heartbeat IPC: 0.563436 cumulative IPC: 0.380472 (Simulation time: 0 hr 19 min 17 sec) 
Heartbeat CPU 0 instructions: 33000001 cycles: 65728093 heartbeat IPC: 0.27325 cumulative IPC: 0.37409 (Simulation time: 0 hr 20 min 11 sec) 
Heartbeat CPU 0 instructions: 34000000 cycles: 68567737 heartbeat IPC: 0.352156 cumulative IPC: 0.373122 (Simulation time: 0 hr 20 min 45 sec) 
Heartbeat CPU 0 instructions: 35000002 cycles: 69926416 heartbeat IPC: 0.73601 cumulative IPC: 0.380628 (Simulation time: 0 hr 21 min 8 sec) 
Heartbeat CPU 0 instructions: 36000000 cycles: 72208718 heartbeat IPC: 0.438153 cumulative IPC: 0.38256 (Simulation time: 0 hr 21 min 43 sec) 
Heartbeat CPU 0 instructions: 37000002 cycles: 74786832 heartbeat IPC: 0.387881 cumulative IPC: 0.382755 (Simulation time: 0 hr 22 min 21 sec) 
Heartbeat CPU 0 instructions: 38000000 cycles: 78185448 heartbeat IPC: 0.294237 cumulative IPC: 0.378686 (Simulation time: 0 hr 23 min 6 sec) 
Heartbeat CPU 0 instructions: 39000001 cycles: 80325750 heartbeat IPC: 0.467224 cumulative IPC: 0.381177 (Simulation time: 0 hr 23 min 41 sec) 
Heartbeat CPU 0 instructions: 40000000 cycles: 83595305 heartbeat IPC: 0.305852 cumulative IPC: 0.378073 (Simulation time: 0 hr 24 min 25 sec) 
Heartbeat CPU 0 instructions: 41000000 cycles: 86724867 heartbeat IPC: 0.319534 cumulative IPC: 0.375852 (Simulation time: 0 hr 25 min 6 sec) 
Heartbeat CPU 0 instructions: 42000002 cycles: 88092110 heartbeat IPC: 0.7314 cumulative IPC: 0.381649 (Simulation time: 0 hr 25 min 30 sec) 
Heartbeat CPU 0 instructions: 43000001 cycles: 89934146 heartbeat IPC: 0.542877 cumulative IPC: 0.385115 (Simulation time: 0 hr 26 min 0 sec) 
Heartbeat CPU 0 instructions: 44000000 cycles: 92704137 heartbeat IPC: 0.361012 cumulative IPC: 0.384361 (Simulation time: 0 hr 26 min 41 sec) 
Heartbeat CPU 0 instructions: 45000003 cycles: 96150177 heartbeat IPC: 0.290189 cumulative IPC: 0.38083 (Simulation time: 0 hr 27 min 29 sec) 
Heartbeat CPU 0 instructions: 46000000 cycles: 99303048 heartbeat IPC: 0.31717 cumulative IPC: 0.378718 (Simulation time: 0 hr 28 min 17 sec) 
Heartbeat CPU 0 instructions: 47000001 cycles: 100958251 heartbeat IPC: 0.604156 cumulative IPC: 0.382576 (Simulation time: 0 hr 28 min 55 sec) 
Heartbeat CPU 0 instructions: 48000000 cycles: 104725920 heartbeat IPC: 0.265416 cumulative IPC: 0.378183 (Simulation time: 0 hr 29 min 46 sec) 
Heartbeat CPU 0 instructions: 49000000 cycles: 107382519 heartbeat IPC: 0.376421 cumulative IPC: 0.378138 (Simulation time: 0 hr 30 min 21 sec) 
Heartbeat CPU 0 instructions: 50000001 cycles: 108741935 heartbeat IPC: 0.735611 cumulative IPC: 0.382788 (Simulation time: 0 hr 30 min 51 sec) 
Heartbeat CPU 0 instructions: 51000000 cycles: 111353431 heartbeat IPC: 0.382922 cumulative IPC: 0.382792 (Simulation time: 0 hr 31 min 24 sec) 
Heartbeat CPU 0 instructions: 52000000 cycles: 114001192 heartbeat IPC: 0.377678 cumulative IPC: 0.382668 (Simulation time: 0 hr 32 min 4 sec) 
Heartbeat CPU 0 instructions: 53000000 cycles: 117225161 heartbeat IPC: 0.310177 cumulative IPC: 0.3806 (Simulation time: 0 hr 32 min 52 sec) 
Heartbeat CPU 0 instructions: 54000000 cycles: 119139158 heartbeat IPC: 0.522467 cumulative IPC: 0.382963 (Simulation time: 0 hr 33 min 28 sec) 
Heartbeat CPU 0 instructions: 55000000 cycles: 122655031 heartbeat IPC: 0.284424 cumulative IPC: 0.380037 (Simulation time: 0 hr 34 min 14 sec) 
Heartbeat CPU 0 instructions: 56000000 cycles: 125585242 heartbeat IPC: 0.341272 cumulative IPC: 0.379101 (Simulation time: 0 hr 34 min 53 sec) 
Heartbeat CPU 0 instructions: 57000003 cycles: 126945000 heartbeat IPC: 0.735427 cumulative IPC: 0.38305 (Simulation time: 0 hr 35 min 19 sec) 
Heartbeat CPU 0 instructions: 58000000 cycles: 129182773 heartbeat IPC: 0.446872 cumulative IPC: 0.384193 (Simulation time: 0 hr 35 min 50 sec) 
Heartbeat CPU 0 instructions: 59000000 cycles: 131747291 heartbeat IPC: 0.389937 cumulative IPC: 0.384308 (Simulation time: 0 hr 36 min 31 sec) 
Heartbeat CPU 0 instructions: 60000000 cycles: 135091015 heartbeat IPC: 0.299068 cumulative IPC: 0.38213 (Simulation time: 0 hr 37 min 14 sec) 
Heartbeat CPU 0 instructions: 61000000 cycles: 137408437 heartbeat IPC: 0.431514 cumulative IPC: 0.38299 (Simulation time: 0 hr 37 min 53 sec) 
Heartbeat CPU 0 instructions: 62000002 cycles: 140257610 heartbeat IPC: 0.35098 cumulative IPC: 0.382319 (Simulation time: 0 hr 38 min 35 sec) 
Heartbeat CPU 0 instructions: 63000001 cycles: 143744382 heartbeat IPC: 0.286798 cumulative IPC: 0.379931 (Simulation time: 0 hr 39 min 17 sec) 
Heartbeat CPU 0 instructions: 64000000 cycles: 145115609 heartbeat IPC: 0.729273 cumulative IPC: 0.383332 (Simulation time: 0 hr 39 min 46 sec) 
Heartbeat CPU 0 instructions: 65000000 cycles: 146655438 heartbeat IPC: 0.649423 cumulative IPC: 0.386209 (Simulation time: 0 hr 40 min 13 sec) 
Heartbeat CPU 0 instructions: 66000002 cycles: 149780738 heartbeat IPC: 0.31997 cumulative IPC: 0.384787 (Simulation time: 0 hr 40 min 51 sec) 
Heartbeat CPU 0 instructions: 67000000 cycles: 152850179 heartbeat IPC: 0.325792 cumulative IPC: 0.383568 (Simulation time: 0 hr 41 min 34 sec) 
Heartbeat CPU 0 instructions: 68000000 cycles: 158564522 heartbeat IPC: 0.174998 cumulative IPC: 0.375845 (Simulation time: 0 hr 42 min 20 sec) 
Heartbeat CPU 0 instructions: 69000001 cycles: 162499546 heartbeat IPC: 0.254128 cumulative IPC: 0.372818 (Simulation time: 0 hr 43 min 3 sec) 
Heartbeat CPU 0 instructions: 70000000 cycles: 166564233 heartbeat IPC: 0.246021 cumulative IPC: 0.369643 (Simulation time: 0 hr 43 min 48 sec) 
Heartbeat CPU 0 instructions: 71000002 cycles: 170827233 heartbeat IPC: 0.234577 cumulative IPC: 0.366187 (Simulation time: 0 hr 44 min 31 sec) 
Heartbeat CPU 0 instructions: 72000000 cycles: 174146413 heartbeat IPC: 0.301279 cumulative IPC: 0.364919 (Simulation time: 0 hr 45 min 10 sec) 
Heartbeat CPU 0 instructions: 73000000 cycles: 177463993 heartbeat IPC: 0.301425 cumulative IPC: 0.363703 (Simulation time: 0 hr 45 min 51 sec) 
Heartbeat CPU 0 instructions: 74000000 cycles: 181003189 heartbeat IPC: 0.28255 cumulative IPC: 0.362078 (Simulation time: 0 hr 46 min 27 sec) 
Heartbeat CPU 0 instructions: 75000002 cycles: 184646954 heartbeat IPC: 0.274442 cumulative IPC: 0.360308 (Simulation time: 0 hr 47 min 8 sec) 
Heartbeat CPU 0 instructions: 76000000 cycles: 187190253 heartbeat IPC: 0.393189 cumulative IPC: 0.360765 (Simulation time: 0 hr 47 min 42 sec) 
Heartbeat CPU 0 instructions: 77000000 cycles: 190694543 heartbeat IPC: 0.285365 cumulative IPC: 0.359348 (Simulation time: 0 hr 48 min 23 sec) 
Heartbeat CPU 0 instructions: 78000002 cycles: 192861338 heartbeat IPC: 0.461512 cumulative IPC: 0.360521 (Simulation time: 0 hr 48 min 59 sec) 
Heartbeat CPU 0 instructions: 79000002 cycles: 194735264 heartbeat IPC: 0.533639 cumulative IPC: 0.362224 (Simulation time: 0 hr 49 min 34 sec) 
Heartbeat CPU 0 instructions: 80000000 cycles: 195974432 heartbeat IPC: 0.806991 cumulative IPC: 0.365099 (Simulation time: 0 hr 49 min 58 sec) 
Heartbeat CPU 0 instructions: 81000003 cycles: 198250935 heartbeat IPC: 0.439272 cumulative IPC: 0.365969 (Simulation time: 0 hr 50 min 32 sec) 
Heartbeat CPU 0 instructions: 82000001 cycles: 201055109 heartbeat IPC: 0.356611 cumulative IPC: 0.365836 (Simulation time: 0 hr 51 min 8 sec) 
Heartbeat CPU 0 instructions: 83000002 cycles: 203455150 heartbeat IPC: 0.41666 cumulative IPC: 0.366448 (Simulation time: 0 hr 51 min 39 sec) 
Heartbeat CPU 0 instructions: 84000000 cycles: 205739917 heartbeat IPC: 0.437681 cumulative IPC: 0.367256 (Simulation time: 0 hr 52 min 8 sec) 
Heartbeat CPU 0 instructions: 85000000 cycles: 207313654 heartbeat IPC: 0.63543 cumulative IPC: 0.369334 (Simulation time: 0 hr 52 min 35 sec) 
Heartbeat CPU 0 instructions: 86000001 cycles: 211194963 heartbeat IPC: 0.257645 cumulative IPC: 0.367239 (Simulation time: 0 hr 53 min 11 sec) 
Heartbeat CPU 0 instructions: 87000000 cycles: 213878477 heartbeat IPC: 0.372645 cumulative IPC: 0.367309 (Simulation time: 0 hr 53 min 37 sec) 
Heartbeat CPU 0 instructions: 88000000 cycles: 215236701 heartbeat IPC: 0.736256 cumulative IPC: 0.369684 (Simulation time: 0 hr 53 min 54 sec) 
Heartbeat CPU 0 instructions: 89000003 cycles: 217901183 heartbeat IPC: 0.375309 cumulative IPC: 0.369754 (Simulation time: 0 hr 54 min 19 sec) 
Heartbeat CPU 0 instructions: 90000002 cycles: 220557288 heartbeat IPC: 0.376491 cumulative IPC: 0.369837 (Simulation time: 0 hr 54 min 47 sec) 
Heartbeat CPU 0 instructions: 91000001 cycles: 223765098 heartbeat IPC: 0.311739 cumulative IPC: 0.368988 (Simulation time: 0 hr 55 min 14 sec) 
Heartbeat CPU 0 instructions: 92000000 cycles: 225649692 heartbeat IPC: 0.530618 cumulative IPC: 0.370363 (Simulation time: 0 hr 55 min 34 sec) 
Heartbeat CPU 0 instructions: 93000000 cycles: 229235823 heartbeat IPC: 0.278852 cumulative IPC: 0.368905 (Simulation time: 0 hr 56 min 1 sec) 
Heartbeat CPU 0 instructions: 94000001 cycles: 232138345 heartbeat IPC: 0.344528 cumulative IPC: 0.368594 (Simulation time: 0 hr 56 min 24 sec) 
Heartbeat CPU 0 instructions: 95000003 cycles: 233504017 heartbeat IPC: 0.732242 cumulative IPC: 0.370761 (Simulation time: 0 hr 56 min 40 sec) 
Heartbeat CPU 0 instructions: 96000000 cycles: 235795645 heartbeat IPC: 0.43637 cumulative IPC: 0.37141 (Simulation time: 0 hr 56 min 59 sec) 
Heartbeat CPU 0 instructions: 97000002 cycles: 238244227 heartbeat IPC: 0.4084 cumulative IPC: 0.371797 (Simulation time: 0 hr 57 min 23 sec) 
Heartbeat CPU 0 instructions: 98000003 cycles: 242157258 heartbeat IPC: 0.255557 cumulative IPC: 0.369885 (Simulation time: 0 hr 57 min 54 sec) 
Heartbeat CPU 0 instructions: 99000000 cycles: 245138365 heartbeat IPC: 0.335445 cumulative IPC: 0.369459 (Simulation time: 0 hr 58 min 17 sec) 
Heartbeat CPU 0 instructions: 100000000 cycles: 247106437 heartbeat IPC: 0.508111 cumulative IPC: 0.370582 (Simulation time: 0 hr 58 min 38 sec) 
Heartbeat CPU 0 instructions: 101000001 cycles: 251145873 heartbeat IPC: 0.24756 cumulative IPC: 0.36857 (Simulation time: 0 hr 59 min 3 sec) 
Heartbeat CPU 0 instructions: 102000000 cycles: 252799193 heartbeat IPC: 0.604843 cumulative IPC: 0.370141 (Simulation time: 0 hr 59 min 16 sec) 
Heartbeat CPU 0 instructions: 103000001 cycles: 254110748 heartbeat IPC: 0.762455 cumulative IPC: 0.372201 (Simulation time: 0 hr 59 min 30 sec) 
Heartbeat CPU 0 instructions: 104000000 cycles: 257496066 heartbeat IPC: 0.295393 cumulative IPC: 0.371174 (Simulation time: 0 hr 59 min 51 sec) 
Heartbeat CPU 0 instructions: 105000003 cycles: 260330002 heartbeat IPC: 0.352867 cumulative IPC: 0.370971 (Simulation time: 1 hr 0 min 12 sec) 
Heartbeat CPU 0 instructions: 106000002 cycles: 263165129 heartbeat IPC: 0.352718 cumulative IPC: 0.370771 (Simulation time: 1 hr 0 min 31 sec) 
Heartbeat CPU 0 instructions: 107000000 cycles: 264937995 heartbeat IPC: 0.564057 cumulative IPC: 0.372086 (Simulation time: 1 hr 0 min 48 sec) 
Heartbeat CPU 0 instructions: 108000000 cycles: 269057481 heartbeat IPC: 0.242749 cumulative IPC: 0.370074 (Simulation time: 1 hr 1 min 10 sec) 
Heartbeat CPU 0 instructions: 109000000 cycles: 271025875 heartbeat IPC: 0.508028 cumulative IPC: 0.371092 (Simulation time: 1 hr 1 min 21 sec) 
Heartbeat CPU 0 instructions: 110000002 cycles: 272360920 heartbeat IPC: 0.74904 cumulative IPC: 0.372974 (Simulation time: 1 hr 1 min 32 sec) 
Finished CPU 0 instructions: 100000000 cycles: 268115386 cummulative IPC: 0.372974 (Simulation time: 1 hr 1 min 32 sec) 

ChampSim completed all CPUs

Region of Interest Statistics

CPU 0 cummulative IPC: 0.372974 instructions: 100000000 cycles: 268115386
LLC TOTAL     ACCESS:    8719803  HIT:    4842421  MISS:    3877382
LLC LOAD      ACCESS:    2241051  HIT:    1059535  MISS:    1181516
LLC RFO       ACCESS:     764939  HIT:     265826  MISS:     499113
LLC PREFETCH  ACCESS:    3553260  HIT:    1532145  MISS:    2021115
LLC WRITEBACK ACCESS:    2160553  HIT:    1984915  MISS:     175638
Insertion Distribution: 
	LOAD 399209 0 537969 350845 
	RFO 264500 0 227242 63187 
	PREF 0 203138 1240321 826865 
	WRITEBACK 0 0 0 203412 
Total Prefetch Downgrades: 229142
