
*** ChampSim Multicore Out-of-Order Simulator ***

Warmup Instructions: 10000000
Simulation Instructions: 100000000
Configuration: 2
Number of CPUs: 1
LLC sets: 2048
LLC ways: 16
Off-chip DRAM Channels: 1 Width: 64-bit Data Rate: 1600 MT/s

CPU 0 runs /datasets/cs240c-wi22-a00-public/data/Assignment2-gz/wrf_1212B.trace.gz
CPU 0 L1D next line prefetcher
CPU 0 L2C IP-based stride prefetcher
Initialize SRRIP state
Heartbeat CPU 0 instructions: 1000001 cycles: 598660 heartbeat IPC: 1.6704 cumulative IPC: 1.6704 (Simulation time: 0 hr 0 min 38 sec) 
Heartbeat CPU 0 instructions: 2000000 cycles: 1197118 heartbeat IPC: 1.67096 cumulative IPC: 1.67068 (Simulation time: 0 hr 1 min 13 sec) 
Heartbeat CPU 0 instructions: 3000001 cycles: 1795976 heartbeat IPC: 1.66985 cumulative IPC: 1.6704 (Simulation time: 0 hr 1 min 54 sec) 
Heartbeat CPU 0 instructions: 4000000 cycles: 2394087 heartbeat IPC: 1.67193 cumulative IPC: 1.67078 (Simulation time: 0 hr 2 min 29 sec) 
Heartbeat CPU 0 instructions: 5000000 cycles: 2993053 heartbeat IPC: 1.66954 cumulative IPC: 1.67054 (Simulation time: 0 hr 3 min 4 sec) 
Heartbeat CPU 0 instructions: 6000001 cycles: 3592667 heartbeat IPC: 1.66774 cumulative IPC: 1.67007 (Simulation time: 0 hr 3 min 41 sec) 
Heartbeat CPU 0 instructions: 7000001 cycles: 4190665 heartbeat IPC: 1.67225 cumulative IPC: 1.67038 (Simulation time: 0 hr 4 min 18 sec) 
Heartbeat CPU 0 instructions: 8000000 cycles: 4788873 heartbeat IPC: 1.67166 cumulative IPC: 1.67054 (Simulation time: 0 hr 4 min 52 sec) 
Heartbeat CPU 0 instructions: 9000002 cycles: 5387792 heartbeat IPC: 1.66968 cumulative IPC: 1.67044 (Simulation time: 0 hr 5 min 29 sec) 
Heartbeat CPU 0 instructions: 10000001 cycles: 5987357 heartbeat IPC: 1.66787 cumulative IPC: 1.67019 (Simulation time: 0 hr 6 min 4 sec) 

Warmup complete CPU 0 instructions: 10000001 cycles: 5987357 (Simulation time: 0 hr 6 min 4 sec) 

Heartbeat CPU 0 instructions: 11000003 cycles: 7743719 heartbeat IPC: 0.56936 cumulative IPC: 0.56936 (Simulation time: 0 hr 6 min 45 sec) 
Heartbeat CPU 0 instructions: 12000000 cycles: 9513320 heartbeat IPC: 0.565097 cumulative IPC: 0.567221 (Simulation time: 0 hr 7 min 31 sec) 
Heartbeat CPU 0 instructions: 13000000 cycles: 11298746 heartbeat IPC: 0.56009 cumulative IPC: 0.564824 (Simulation time: 0 hr 8 min 12 sec) 
Heartbeat CPU 0 instructions: 14000002 cycles: 13082020 heartbeat IPC: 0.560767 cumulative IPC: 0.563804 (Simulation time: 0 hr 8 min 52 sec) 
Heartbeat CPU 0 instructions: 15000003 cycles: 14873145 heartbeat IPC: 0.558309 cumulative IPC: 0.562697 (Simulation time: 0 hr 9 min 37 sec) 
Heartbeat CPU 0 instructions: 16000000 cycles: 16621152 heartbeat IPC: 0.572078 cumulative IPC: 0.564239 (Simulation time: 0 hr 10 min 22 sec) 
Heartbeat CPU 0 instructions: 17000000 cycles: 18402583 heartbeat IPC: 0.561346 cumulative IPC: 0.563824 (Simulation time: 0 hr 11 min 6 sec) 
Heartbeat CPU 0 instructions: 18000000 cycles: 20184008 heartbeat IPC: 0.561348 cumulative IPC: 0.563513 (Simulation time: 0 hr 11 min 48 sec) 
Heartbeat CPU 0 instructions: 19000003 cycles: 21962577 heartbeat IPC: 0.562251 cumulative IPC: 0.563373 (Simulation time: 0 hr 12 min 29 sec) 
Heartbeat CPU 0 instructions: 20000000 cycles: 23710870 heartbeat IPC: 0.571985 cumulative IPC: 0.564222 (Simulation time: 0 hr 13 min 10 sec) 
Heartbeat CPU 0 instructions: 21000001 cycles: 25477486 heartbeat IPC: 0.566055 cumulative IPC: 0.564388 (Simulation time: 0 hr 13 min 56 sec) 
Heartbeat CPU 0 instructions: 22000001 cycles: 27260244 heartbeat IPC: 0.560929 cumulative IPC: 0.564098 (Simulation time: 0 hr 14 min 39 sec) 
Heartbeat CPU 0 instructions: 23000000 cycles: 29046641 heartbeat IPC: 0.559785 cumulative IPC: 0.563764 (Simulation time: 0 hr 15 min 18 sec) 
Heartbeat CPU 0 instructions: 24000000 cycles: 30828344 heartbeat IPC: 0.561261 cumulative IPC: 0.563585 (Simulation time: 0 hr 15 min 58 sec) 
Heartbeat CPU 0 instructions: 25000002 cycles: 32575404 heartbeat IPC: 0.572391 cumulative IPC: 0.564163 (Simulation time: 0 hr 16 min 37 sec) 
Heartbeat CPU 0 instructions: 26000000 cycles: 34357448 heartbeat IPC: 0.561152 cumulative IPC: 0.563974 (Simulation time: 0 hr 17 min 19 sec) 
Heartbeat CPU 0 instructions: 27000000 cycles: 36139753 heartbeat IPC: 0.561071 cumulative IPC: 0.563803 (Simulation time: 0 hr 17 min 59 sec) 
Heartbeat CPU 0 instructions: 28000000 cycles: 37918445 heartbeat IPC: 0.562211 cumulative IPC: 0.563714 (Simulation time: 0 hr 18 min 45 sec) 
Heartbeat CPU 0 instructions: 29000000 cycles: 39667367 heartbeat IPC: 0.571781 cumulative IPC: 0.564133 (Simulation time: 0 hr 19 min 30 sec) 
Heartbeat CPU 0 instructions: 30000003 cycles: 41428390 heartbeat IPC: 0.567853 cumulative IPC: 0.564318 (Simulation time: 0 hr 20 min 16 sec) 
Heartbeat CPU 0 instructions: 31000000 cycles: 43210860 heartbeat IPC: 0.561018 cumulative IPC: 0.56416 (Simulation time: 0 hr 20 min 58 sec) 
Heartbeat CPU 0 instructions: 32000000 cycles: 44992302 heartbeat IPC: 0.561343 cumulative IPC: 0.564031 (Simulation time: 0 hr 21 min 39 sec) 
Heartbeat CPU 0 instructions: 33000000 cycles: 46776742 heartbeat IPC: 0.5604 cumulative IPC: 0.563872 (Simulation time: 0 hr 22 min 25 sec) 
Heartbeat CPU 0 instructions: 34000000 cycles: 48515469 heartbeat IPC: 0.575133 cumulative IPC: 0.564333 (Simulation time: 0 hr 23 min 7 sec) 
Heartbeat CPU 0 instructions: 35000003 cycles: 50298404 heartbeat IPC: 0.560875 cumulative IPC: 0.564193 (Simulation time: 0 hr 23 min 49 sec) 
Heartbeat CPU 0 instructions: 36000000 cycles: 52079638 heartbeat IPC: 0.561407 cumulative IPC: 0.564086 (Simulation time: 0 hr 24 min 29 sec) 
Heartbeat CPU 0 instructions: 37000001 cycles: 53863005 heartbeat IPC: 0.560738 cumulative IPC: 0.563961 (Simulation time: 0 hr 25 min 13 sec) 
Heartbeat CPU 0 instructions: 38000000 cycles: 55613519 heartbeat IPC: 0.57126 cumulative IPC: 0.564219 (Simulation time: 0 hr 25 min 53 sec) 
Heartbeat CPU 0 instructions: 39000000 cycles: 57368008 heartbeat IPC: 0.569967 cumulative IPC: 0.564415 (Simulation time: 0 hr 26 min 34 sec) 
Heartbeat CPU 0 instructions: 40000000 cycles: 59149142 heartbeat IPC: 0.56144 cumulative IPC: 0.564315 (Simulation time: 0 hr 27 min 15 sec) 
Heartbeat CPU 0 instructions: 41000001 cycles: 60931184 heartbeat IPC: 0.561155 cumulative IPC: 0.564213 (Simulation time: 0 hr 27 min 56 sec) 
Heartbeat CPU 0 instructions: 42000003 cycles: 62715023 heartbeat IPC: 0.56059 cumulative IPC: 0.564099 (Simulation time: 0 hr 28 min 38 sec) 
Heartbeat CPU 0 instructions: 43000001 cycles: 64442562 heartbeat IPC: 0.578857 cumulative IPC: 0.564535 (Simulation time: 0 hr 29 min 22 sec) 
Heartbeat CPU 0 instructions: 44000000 cycles: 66223576 heartbeat IPC: 0.561477 cumulative IPC: 0.564444 (Simulation time: 0 hr 30 min 5 sec) 
Heartbeat CPU 0 instructions: 45000001 cycles: 68004104 heartbeat IPC: 0.561632 cumulative IPC: 0.564364 (Simulation time: 0 hr 30 min 46 sec) 
Heartbeat CPU 0 instructions: 46000001 cycles: 69782807 heartbeat IPC: 0.562207 cumulative IPC: 0.564304 (Simulation time: 0 hr 31 min 27 sec) 
Heartbeat CPU 0 instructions: 47000000 cycles: 71534720 heartbeat IPC: 0.570804 cumulative IPC: 0.564477 (Simulation time: 0 hr 32 min 12 sec) 
Heartbeat CPU 0 instructions: 48000000 cycles: 73275894 heartbeat IPC: 0.574325 cumulative IPC: 0.564732 (Simulation time: 0 hr 32 min 54 sec) 
Heartbeat CPU 0 instructions: 49000002 cycles: 75058372 heartbeat IPC: 0.561018 cumulative IPC: 0.564636 (Simulation time: 0 hr 33 min 35 sec) 
Heartbeat CPU 0 instructions: 50000002 cycles: 76838206 heartbeat IPC: 0.56185 cumulative IPC: 0.564566 (Simulation time: 0 hr 34 min 23 sec) 
Heartbeat CPU 0 instructions: 51000002 cycles: 78637370 heartbeat IPC: 0.555814 cumulative IPC: 0.56435 (Simulation time: 0 hr 35 min 8 sec) 
Heartbeat CPU 0 instructions: 52000000 cycles: 80360458 heartbeat IPC: 0.580352 cumulative IPC: 0.56472 (Simulation time: 0 hr 35 min 49 sec) 
Heartbeat CPU 0 instructions: 53000002 cycles: 82127470 heartbeat IPC: 0.565928 cumulative IPC: 0.564748 (Simulation time: 0 hr 36 min 35 sec) 
Heartbeat CPU 0 instructions: 54000001 cycles: 83907994 heartbeat IPC: 0.561632 cumulative IPC: 0.564677 (Simulation time: 0 hr 37 min 16 sec) 
Heartbeat CPU 0 instructions: 55000000 cycles: 85688153 heartbeat IPC: 0.561747 cumulative IPC: 0.564612 (Simulation time: 0 hr 38 min 1 sec) 
Heartbeat CPU 0 instructions: 56000000 cycles: 87461610 heartbeat IPC: 0.56387 cumulative IPC: 0.564596 (Simulation time: 0 hr 38 min 41 sec) 
Heartbeat CPU 0 instructions: 57000001 cycles: 89186652 heartbeat IPC: 0.579697 cumulative IPC: 0.564909 (Simulation time: 0 hr 39 min 23 sec) 
Heartbeat CPU 0 instructions: 58000001 cycles: 90968144 heartbeat IPC: 0.561327 cumulative IPC: 0.564834 (Simulation time: 0 hr 40 min 5 sec) 
Heartbeat CPU 0 instructions: 59000000 cycles: 92749740 heartbeat IPC: 0.561294 cumulative IPC: 0.564761 (Simulation time: 0 hr 40 min 47 sec) 
Heartbeat CPU 0 instructions: 60000000 cycles: 94532840 heartbeat IPC: 0.560821 cumulative IPC: 0.564682 (Simulation time: 0 hr 41 min 31 sec) 
Heartbeat CPU 0 instructions: 61000001 cycles: 96272691 heartbeat IPC: 0.574762 cumulative IPC: 0.564876 (Simulation time: 0 hr 42 min 13 sec) 
Heartbeat CPU 0 instructions: 62000001 cycles: 98015851 heartbeat IPC: 0.573671 cumulative IPC: 0.565042 (Simulation time: 0 hr 42 min 54 sec) 
Heartbeat CPU 0 instructions: 63000002 cycles: 99801474 heartbeat IPC: 0.560029 cumulative IPC: 0.564947 (Simulation time: 0 hr 43 min 35 sec) 
Heartbeat CPU 0 instructions: 64000000 cycles: 101583674 heartbeat IPC: 0.561103 cumulative IPC: 0.564875 (Simulation time: 0 hr 44 min 17 sec) 
Heartbeat CPU 0 instructions: 65000000 cycles: 103371305 heartbeat IPC: 0.5594 cumulative IPC: 0.564775 (Simulation time: 0 hr 44 min 58 sec) 
Heartbeat CPU 0 instructions: 66000001 cycles: 105084368 heartbeat IPC: 0.58375 cumulative IPC: 0.565103 (Simulation time: 0 hr 45 min 37 sec) 
Heartbeat CPU 0 instructions: 67000002 cycles: 106841147 heartbeat IPC: 0.569224 cumulative IPC: 0.565175 (Simulation time: 0 hr 46 min 17 sec) 
Heartbeat CPU 0 instructions: 68000000 cycles: 108626663 heartbeat IPC: 0.560061 cumulative IPC: 0.565086 (Simulation time: 0 hr 46 min 57 sec) 
Heartbeat CPU 0 instructions: 69000001 cycles: 110409242 heartbeat IPC: 0.560986 cumulative IPC: 0.565016 (Simulation time: 0 hr 47 min 36 sec) 
Heartbeat CPU 0 instructions: 70000000 cycles: 112178908 heartbeat IPC: 0.565078 cumulative IPC: 0.565017 (Simulation time: 0 hr 48 min 15 sec) 
Heartbeat CPU 0 instructions: 71000001 cycles: 113894290 heartbeat IPC: 0.582961 cumulative IPC: 0.565302 (Simulation time: 0 hr 48 min 53 sec) 
Heartbeat CPU 0 instructions: 72000000 cycles: 115671096 heartbeat IPC: 0.562807 cumulative IPC: 0.565262 (Simulation time: 0 hr 49 min 32 sec) 
Heartbeat CPU 0 instructions: 73000001 cycles: 117457937 heartbeat IPC: 0.559647 cumulative IPC: 0.565172 (Simulation time: 0 hr 50 min 11 sec) 
Heartbeat CPU 0 instructions: 74000000 cycles: 119237422 heartbeat IPC: 0.56196 cumulative IPC: 0.565121 (Simulation time: 0 hr 50 min 49 sec) 
Heartbeat CPU 0 instructions: 75000002 cycles: 120993361 heartbeat IPC: 0.569497 cumulative IPC: 0.565188 (Simulation time: 0 hr 51 min 23 sec) 
Heartbeat CPU 0 instructions: 76000000 cycles: 122727413 heartbeat IPC: 0.576683 cumulative IPC: 0.565359 (Simulation time: 0 hr 52 min 0 sec) 
Heartbeat CPU 0 instructions: 77000003 cycles: 124504734 heartbeat IPC: 0.562646 cumulative IPC: 0.565318 (Simulation time: 0 hr 52 min 32 sec) 
Heartbeat CPU 0 instructions: 78000000 cycles: 126286561 heartbeat IPC: 0.56122 cumulative IPC: 0.565257 (Simulation time: 0 hr 53 min 5 sec) 
Heartbeat CPU 0 instructions: 79000000 cycles: 128084148 heartbeat IPC: 0.556301 cumulative IPC: 0.565125 (Simulation time: 0 hr 53 min 35 sec) 
Heartbeat CPU 0 instructions: 80000000 cycles: 129801728 heartbeat IPC: 0.582215 cumulative IPC: 0.565362 (Simulation time: 0 hr 54 min 3 sec) 
Heartbeat CPU 0 instructions: 81000003 cycles: 131567456 heartbeat IPC: 0.56634 cumulative IPC: 0.565376 (Simulation time: 0 hr 54 min 34 sec) 
Heartbeat CPU 0 instructions: 82000002 cycles: 133355529 heartbeat IPC: 0.559261 cumulative IPC: 0.56529 (Simulation time: 0 hr 55 min 4 sec) 
Heartbeat CPU 0 instructions: 83000001 cycles: 135140215 heartbeat IPC: 0.560322 cumulative IPC: 0.565222 (Simulation time: 0 hr 55 min 31 sec) 
Heartbeat CPU 0 instructions: 84000000 cycles: 136914893 heartbeat IPC: 0.563482 cumulative IPC: 0.565198 (Simulation time: 0 hr 55 min 56 sec) 
Heartbeat CPU 0 instructions: 85000000 cycles: 138633446 heartbeat IPC: 0.581885 cumulative IPC: 0.565414 (Simulation time: 0 hr 56 min 21 sec) 
Heartbeat CPU 0 instructions: 86000001 cycles: 140418893 heartbeat IPC: 0.560084 cumulative IPC: 0.565344 (Simulation time: 0 hr 56 min 48 sec) 
Heartbeat CPU 0 instructions: 87000000 cycles: 142201038 heartbeat IPC: 0.561121 cumulative IPC: 0.565288 (Simulation time: 0 hr 57 min 14 sec) 
Heartbeat CPU 0 instructions: 88000000 cycles: 143977500 heartbeat IPC: 0.562917 cumulative IPC: 0.565258 (Simulation time: 0 hr 57 min 39 sec) 
Heartbeat CPU 0 instructions: 89000000 cycles: 145728263 heartbeat IPC: 0.57118 cumulative IPC: 0.565332 (Simulation time: 0 hr 58 min 4 sec) 
Heartbeat CPU 0 instructions: 90000000 cycles: 147484252 heartbeat IPC: 0.56948 cumulative IPC: 0.565383 (Simulation time: 0 hr 58 min 29 sec) 
Heartbeat CPU 0 instructions: 91000001 cycles: 149263380 heartbeat IPC: 0.562074 cumulative IPC: 0.565342 (Simulation time: 0 hr 58 min 51 sec) 
Heartbeat CPU 0 instructions: 92000000 cycles: 151046092 heartbeat IPC: 0.560943 cumulative IPC: 0.565288 (Simulation time: 0 hr 59 min 15 sec) 
Heartbeat CPU 0 instructions: 93000003 cycles: 152830236 heartbeat IPC: 0.560495 cumulative IPC: 0.56523 (Simulation time: 0 hr 59 min 37 sec) 
Heartbeat CPU 0 instructions: 94000001 cycles: 154556878 heartbeat IPC: 0.579158 cumulative IPC: 0.565392 (Simulation time: 0 hr 59 min 57 sec) 
Heartbeat CPU 0 instructions: 95000001 cycles: 156338280 heartbeat IPC: 0.561356 cumulative IPC: 0.565344 (Simulation time: 1 hr 0 min 18 sec) 
Heartbeat CPU 0 instructions: 96000000 cycles: 158118708 heartbeat IPC: 0.561662 cumulative IPC: 0.565301 (Simulation time: 1 hr 0 min 38 sec) 
Heartbeat CPU 0 instructions: 97000000 cycles: 159897814 heartbeat IPC: 0.56208 cumulative IPC: 0.565264 (Simulation time: 1 hr 0 min 57 sec) 
Heartbeat CPU 0 instructions: 98000000 cycles: 161658781 heartbeat IPC: 0.56787 cumulative IPC: 0.565293 (Simulation time: 1 hr 1 min 15 sec) 
Heartbeat CPU 0 instructions: 99000000 cycles: 163413196 heartbeat IPC: 0.569991 cumulative IPC: 0.565346 (Simulation time: 1 hr 1 min 32 sec) 
Heartbeat CPU 0 instructions: 100000000 cycles: 165191801 heartbeat IPC: 0.562238 cumulative IPC: 0.565311 (Simulation time: 1 hr 1 min 49 sec) 
Heartbeat CPU 0 instructions: 101000000 cycles: 166969635 heartbeat IPC: 0.562482 cumulative IPC: 0.56528 (Simulation time: 1 hr 2 min 5 sec) 
Heartbeat CPU 0 instructions: 102000003 cycles: 168759037 heartbeat IPC: 0.558848 cumulative IPC: 0.565209 (Simulation time: 1 hr 2 min 20 sec) 
Heartbeat CPU 0 instructions: 103000001 cycles: 170490577 heartbeat IPC: 0.577519 cumulative IPC: 0.565338 (Simulation time: 1 hr 2 min 35 sec) 
Heartbeat CPU 0 instructions: 104000000 cycles: 172275966 heartbeat IPC: 0.560101 cumulative IPC: 0.565282 (Simulation time: 1 hr 2 min 49 sec) 
Heartbeat CPU 0 instructions: 105000002 cycles: 174056072 heartbeat IPC: 0.561765 cumulative IPC: 0.565245 (Simulation time: 1 hr 3 min 2 sec) 
Heartbeat CPU 0 instructions: 106000001 cycles: 175833334 heartbeat IPC: 0.562663 cumulative IPC: 0.565218 (Simulation time: 1 hr 3 min 12 sec) 
Heartbeat CPU 0 instructions: 107000003 cycles: 177592638 heartbeat IPC: 0.568408 cumulative IPC: 0.565251 (Simulation time: 1 hr 3 min 21 sec) 
Heartbeat CPU 0 instructions: 108000000 cycles: 179357966 heartbeat IPC: 0.566465 cumulative IPC: 0.565263 (Simulation time: 1 hr 3 min 30 sec) 
Heartbeat CPU 0 instructions: 109000002 cycles: 181142088 heartbeat IPC: 0.560501 cumulative IPC: 0.565215 (Simulation time: 1 hr 3 min 38 sec) 
Heartbeat CPU 0 instructions: 110000003 cycles: 182921088 heartbeat IPC: 0.562114 cumulative IPC: 0.565183 (Simulation time: 1 hr 3 min 46 sec) 
Finished CPU 0 instructions: 100000002 cycles: 176933731 cummulative IPC: 0.565183 (Simulation time: 1 hr 3 min 46 sec) 

ChampSim completed all CPUs

Region of Interest Statistics

CPU 0 cummulative IPC: 0.565183 instructions: 100000002 cycles: 176933731
LLC TOTAL     ACCESS:     134776  HIT:      45429  MISS:      89347
LLC LOAD      ACCESS:      14867  HIT:       4325  MISS:      10542
LLC RFO       ACCESS:       1238  HIT:        336  MISS:        902
LLC PREFETCH  ACCESS:      79570  HIT:      10921  MISS:      68649
LLC WRITEBACK ACCESS:      39101  HIT:      29847  MISS:       9254
Insertion Distribution: 
	LOAD 364 0 11360 470 
	RFO 0 0 1085 143 
	PREF 0 0 52415 24430 
	WRITEBACK 0 0 0 9254 
Total Prefetch Downgrades: 357
