
*** ChampSim Multicore Out-of-Order Simulator ***

Warmup Instructions: 10000000
Simulation Instructions: 100000000
Configuration: 2
Number of CPUs: 1
LLC sets: 2048
LLC ways: 16
Off-chip DRAM Channels: 1 Width: 64-bit Data Rate: 1600 MT/s

CPU 0 runs /datasets/cs240c-wi22-a00-public/data/Assignment2-gz/cactusADM_734B.trace.gz
CPU 0 L1D next line prefetcher
CPU 0 L2C IP-based stride prefetcher
Initialize SRRIP state
Heartbeat CPU 0 instructions: 1000003 cycles: 592726 heartbeat IPC: 1.68713 cumulative IPC: 1.68713 (Simulation time: 0 hr 0 min 40 sec) 
Heartbeat CPU 0 instructions: 2000001 cycles: 1185927 heartbeat IPC: 1.68577 cumulative IPC: 1.68645 (Simulation time: 0 hr 1 min 18 sec) 
Heartbeat CPU 0 instructions: 3000003 cycles: 1778979 heartbeat IPC: 1.6862 cumulative IPC: 1.68636 (Simulation time: 0 hr 1 min 58 sec) 
Heartbeat CPU 0 instructions: 4000000 cycles: 2371929 heartbeat IPC: 1.68648 cumulative IPC: 1.68639 (Simulation time: 0 hr 2 min 39 sec) 
Heartbeat CPU 0 instructions: 5000000 cycles: 2965279 heartbeat IPC: 1.68535 cumulative IPC: 1.68618 (Simulation time: 0 hr 3 min 17 sec) 
Heartbeat CPU 0 instructions: 6000002 cycles: 3558551 heartbeat IPC: 1.68557 cumulative IPC: 1.68608 (Simulation time: 0 hr 3 min 54 sec) 
Heartbeat CPU 0 instructions: 7000000 cycles: 4151394 heartbeat IPC: 1.68678 cumulative IPC: 1.68618 (Simulation time: 0 hr 4 min 32 sec) 
Heartbeat CPU 0 instructions: 8000000 cycles: 4744343 heartbeat IPC: 1.68649 cumulative IPC: 1.68622 (Simulation time: 0 hr 5 min 11 sec) 
Heartbeat CPU 0 instructions: 9000001 cycles: 5337493 heartbeat IPC: 1.68592 cumulative IPC: 1.68619 (Simulation time: 0 hr 5 min 51 sec) 
Heartbeat CPU 0 instructions: 10000003 cycles: 5958967 heartbeat IPC: 1.60908 cumulative IPC: 1.67814 (Simulation time: 0 hr 6 min 28 sec) 

Warmup complete CPU 0 instructions: 10000003 cycles: 5958967 (Simulation time: 0 hr 6 min 28 sec) 

Heartbeat CPU 0 instructions: 11000002 cycles: 12570796 heartbeat IPC: 0.151244 cumulative IPC: 0.151244 (Simulation time: 0 hr 7 min 15 sec) 
Heartbeat CPU 0 instructions: 12000000 cycles: 14313483 heartbeat IPC: 0.573825 cumulative IPC: 0.239391 (Simulation time: 0 hr 7 min 57 sec) 
Heartbeat CPU 0 instructions: 13000002 cycles: 16001868 heartbeat IPC: 0.592283 cumulative IPC: 0.298718 (Simulation time: 0 hr 8 min 37 sec) 
Heartbeat CPU 0 instructions: 14000000 cycles: 17687482 heartbeat IPC: 0.593254 cumulative IPC: 0.341049 (Simulation time: 0 hr 9 min 19 sec) 
Heartbeat CPU 0 instructions: 15000003 cycles: 19427115 heartbeat IPC: 0.574836 cumulative IPC: 0.371246 (Simulation time: 0 hr 10 min 4 sec) 
Heartbeat CPU 0 instructions: 16000000 cycles: 21170680 heartbeat IPC: 0.573536 cumulative IPC: 0.394433 (Simulation time: 0 hr 10 min 45 sec) 
Heartbeat CPU 0 instructions: 17000002 cycles: 22904356 heartbeat IPC: 0.57681 cumulative IPC: 0.413092 (Simulation time: 0 hr 11 min 24 sec) 
Heartbeat CPU 0 instructions: 18000001 cycles: 24562483 heartbeat IPC: 0.60309 cumulative IPC: 0.430026 (Simulation time: 0 hr 12 min 3 sec) 
Heartbeat CPU 0 instructions: 19000000 cycles: 26279697 heartbeat IPC: 0.582338 cumulative IPC: 0.442897 (Simulation time: 0 hr 12 min 43 sec) 
Heartbeat CPU 0 instructions: 20000000 cycles: 28022936 heartbeat IPC: 0.573645 cumulative IPC: 0.453227 (Simulation time: 0 hr 13 min 26 sec) 
Heartbeat CPU 0 instructions: 21000002 cycles: 29766807 heartbeat IPC: 0.573438 cumulative IPC: 0.462033 (Simulation time: 0 hr 14 min 10 sec) 
Heartbeat CPU 0 instructions: 22000000 cycles: 31475919 heartbeat IPC: 0.585098 cumulative IPC: 0.470275 (Simulation time: 0 hr 14 min 51 sec) 
Heartbeat CPU 0 instructions: 23000001 cycles: 33140206 heartbeat IPC: 0.600859 cumulative IPC: 0.478271 (Simulation time: 0 hr 15 min 28 sec) 
Heartbeat CPU 0 instructions: 24000000 cycles: 40753898 heartbeat IPC: 0.131342 cumulative IPC: 0.402357 (Simulation time: 0 hr 16 min 13 sec) 
Heartbeat CPU 0 instructions: 25000000 cycles: 42494616 heartbeat IPC: 0.574476 cumulative IPC: 0.410558 (Simulation time: 0 hr 16 min 51 sec) 
Heartbeat CPU 0 instructions: 26000002 cycles: 44229243 heartbeat IPC: 0.576494 cumulative IPC: 0.418079 (Simulation time: 0 hr 17 min 30 sec) 
Heartbeat CPU 0 instructions: 27000002 cycles: 45892585 heartbeat IPC: 0.601199 cumulative IPC: 0.425706 (Simulation time: 0 hr 18 min 8 sec) 
Heartbeat CPU 0 instructions: 28000000 cycles: 47617789 heartbeat IPC: 0.57964 cumulative IPC: 0.432081 (Simulation time: 0 hr 18 min 50 sec) 
Heartbeat CPU 0 instructions: 29000001 cycles: 49377074 heartbeat IPC: 0.568413 cumulative IPC: 0.437605 (Simulation time: 0 hr 19 min 34 sec) 
Heartbeat CPU 0 instructions: 30000001 cycles: 51118862 heartbeat IPC: 0.574123 cumulative IPC: 0.442871 (Simulation time: 0 hr 20 min 20 sec) 
Heartbeat CPU 0 instructions: 31000003 cycles: 52833087 heartbeat IPC: 0.583355 cumulative IPC: 0.448008 (Simulation time: 0 hr 21 min 0 sec) 
Heartbeat CPU 0 instructions: 32000000 cycles: 54492255 heartbeat IPC: 0.60271 cumulative IPC: 0.453297 (Simulation time: 0 hr 21 min 41 sec) 
Heartbeat CPU 0 instructions: 33000000 cycles: 56227618 heartbeat IPC: 0.576248 cumulative IPC: 0.457542 (Simulation time: 0 hr 22 min 26 sec) 
Heartbeat CPU 0 instructions: 34000001 cycles: 57971351 heartbeat IPC: 0.573483 cumulative IPC: 0.461429 (Simulation time: 0 hr 23 min 7 sec) 
Heartbeat CPU 0 instructions: 35000000 cycles: 59709092 heartbeat IPC: 0.575459 cumulative IPC: 0.465115 (Simulation time: 0 hr 23 min 46 sec) 
Heartbeat CPU 0 instructions: 36000000 cycles: 61391923 heartbeat IPC: 0.594237 cumulative IPC: 0.469035 (Simulation time: 0 hr 24 min 27 sec) 
Heartbeat CPU 0 instructions: 37000003 cycles: 68922764 heartbeat IPC: 0.132788 cumulative IPC: 0.428818 (Simulation time: 0 hr 25 min 15 sec) 
Heartbeat CPU 0 instructions: 38000001 cycles: 70662986 heartbeat IPC: 0.574638 cumulative IPC: 0.43274 (Simulation time: 0 hr 25 min 53 sec) 
Heartbeat CPU 0 instructions: 39000001 cycles: 72403782 heartbeat IPC: 0.57445 cumulative IPC: 0.436452 (Simulation time: 0 hr 26 min 33 sec) 
Heartbeat CPU 0 instructions: 40000000 cycles: 74121154 heartbeat IPC: 0.582284 cumulative IPC: 0.440127 (Simulation time: 0 hr 27 min 13 sec) 
Heartbeat CPU 0 instructions: 41000001 cycles: 75775880 heartbeat IPC: 0.60433 cumulative IPC: 0.444018 (Simulation time: 0 hr 27 min 53 sec) 
Heartbeat CPU 0 instructions: 42000002 cycles: 77511330 heartbeat IPC: 0.57622 cumulative IPC: 0.447225 (Simulation time: 0 hr 28 min 33 sec) 
Heartbeat CPU 0 instructions: 43000000 cycles: 79252364 heartbeat IPC: 0.57437 cumulative IPC: 0.450245 (Simulation time: 0 hr 29 min 22 sec) 
Heartbeat CPU 0 instructions: 44000000 cycles: 80992206 heartbeat IPC: 0.574765 cumulative IPC: 0.453132 (Simulation time: 0 hr 30 min 5 sec) 
Heartbeat CPU 0 instructions: 45000000 cycles: 82676895 heartbeat IPC: 0.593581 cumulative IPC: 0.456217 (Simulation time: 0 hr 30 min 45 sec) 
Heartbeat CPU 0 instructions: 46000003 cycles: 84360522 heartbeat IPC: 0.593958 cumulative IPC: 0.459175 (Simulation time: 0 hr 31 min 24 sec) 
Heartbeat CPU 0 instructions: 47000001 cycles: 86097387 heartbeat IPC: 0.575749 cumulative IPC: 0.461701 (Simulation time: 0 hr 32 min 5 sec) 
Heartbeat CPU 0 instructions: 48000000 cycles: 87836987 heartbeat IPC: 0.574844 cumulative IPC: 0.464105 (Simulation time: 0 hr 32 min 48 sec) 
Heartbeat CPU 0 instructions: 49000000 cycles: 89571656 heartbeat IPC: 0.576479 cumulative IPC: 0.466436 (Simulation time: 0 hr 33 min 27 sec) 
Heartbeat CPU 0 instructions: 50000001 cycles: 97024535 heartbeat IPC: 0.134176 cumulative IPC: 0.439244 (Simulation time: 0 hr 34 min 18 sec) 
Heartbeat CPU 0 instructions: 51000000 cycles: 98754348 heartbeat IPC: 0.578097 cumulative IPC: 0.441832 (Simulation time: 0 hr 35 min 2 sec) 
Heartbeat CPU 0 instructions: 52000000 cycles: 100495301 heartbeat IPC: 0.574398 cumulative IPC: 0.444274 (Simulation time: 0 hr 35 min 46 sec) 
Heartbeat CPU 0 instructions: 53000003 cycles: 102235953 heartbeat IPC: 0.574499 cumulative IPC: 0.446628 (Simulation time: 0 hr 36 min 33 sec) 
Heartbeat CPU 0 instructions: 54000000 cycles: 103925808 heartbeat IPC: 0.591765 cumulative IPC: 0.449132 (Simulation time: 0 hr 37 min 11 sec) 
Heartbeat CPU 0 instructions: 55000001 cycles: 105603868 heartbeat IPC: 0.595927 cumulative IPC: 0.451604 (Simulation time: 0 hr 37 min 53 sec) 
Heartbeat CPU 0 instructions: 56000000 cycles: 107357421 heartbeat IPC: 0.57027 cumulative IPC: 0.453656 (Simulation time: 0 hr 38 min 31 sec) 
Heartbeat CPU 0 instructions: 57000000 cycles: 109108791 heartbeat IPC: 0.570982 cumulative IPC: 0.455648 (Simulation time: 0 hr 39 min 10 sec) 
Heartbeat CPU 0 instructions: 58000001 cycles: 110844404 heartbeat IPC: 0.576166 cumulative IPC: 0.457642 (Simulation time: 0 hr 39 min 52 sec) 
Heartbeat CPU 0 instructions: 59000000 cycles: 112505085 heartbeat IPC: 0.602162 cumulative IPC: 0.459895 (Simulation time: 0 hr 40 min 31 sec) 
Heartbeat CPU 0 instructions: 60000000 cycles: 114214424 heartbeat IPC: 0.585021 cumulative IPC: 0.46187 (Simulation time: 0 hr 41 min 11 sec) 
Heartbeat CPU 0 instructions: 61000002 cycles: 115955609 heartbeat IPC: 0.574323 cumulative IPC: 0.46365 (Simulation time: 0 hr 41 min 54 sec) 
Heartbeat CPU 0 instructions: 62000002 cycles: 117696749 heartbeat IPC: 0.574336 cumulative IPC: 0.465375 (Simulation time: 0 hr 42 min 34 sec) 
Heartbeat CPU 0 instructions: 63000002 cycles: 125059909 heartbeat IPC: 0.135811 cumulative IPC: 0.445001 (Simulation time: 0 hr 43 min 20 sec) 
Heartbeat CPU 0 instructions: 64000000 cycles: 127013720 heartbeat IPC: 0.511819 cumulative IPC: 0.446079 (Simulation time: 0 hr 44 min 0 sec) 
Heartbeat CPU 0 instructions: 65000003 cycles: 128751964 heartbeat IPC: 0.575295 cumulative IPC: 0.447908 (Simulation time: 0 hr 44 min 38 sec) 
Heartbeat CPU 0 instructions: 66000001 cycles: 130494964 heartbeat IPC: 0.573722 cumulative IPC: 0.449669 (Simulation time: 0 hr 45 min 17 sec) 
Heartbeat CPU 0 instructions: 67000000 cycles: 132232870 heartbeat IPC: 0.575405 cumulative IPC: 0.4514 (Simulation time: 0 hr 45 min 56 sec) 
Heartbeat CPU 0 instructions: 68000000 cycles: 133897950 heartbeat IPC: 0.600572 cumulative IPC: 0.453341 (Simulation time: 0 hr 46 min 35 sec) 
Heartbeat CPU 0 instructions: 69000000 cycles: 135601174 heartbeat IPC: 0.587122 cumulative IPC: 0.455099 (Simulation time: 0 hr 47 min 13 sec) 
Heartbeat CPU 0 instructions: 70000001 cycles: 137343991 heartbeat IPC: 0.573784 cumulative IPC: 0.456673 (Simulation time: 0 hr 47 min 52 sec) 
Heartbeat CPU 0 instructions: 71000001 cycles: 139088834 heartbeat IPC: 0.573117 cumulative IPC: 0.458199 (Simulation time: 0 hr 48 min 29 sec) 
Heartbeat CPU 0 instructions: 72000000 cycles: 140812222 heartbeat IPC: 0.580252 cumulative IPC: 0.459759 (Simulation time: 0 hr 49 min 7 sec) 
Heartbeat CPU 0 instructions: 73000003 cycles: 142463905 heartbeat IPC: 0.605445 cumulative IPC: 0.461522 (Simulation time: 0 hr 49 min 45 sec) 
Heartbeat CPU 0 instructions: 74000002 cycles: 144197605 heartbeat IPC: 0.5768 cumulative IPC: 0.462968 (Simulation time: 0 hr 50 min 22 sec) 
Heartbeat CPU 0 instructions: 75000002 cycles: 145939680 heartbeat IPC: 0.574028 cumulative IPC: 0.46435 (Simulation time: 0 hr 50 min 58 sec) 
Heartbeat CPU 0 instructions: 76000000 cycles: 152112079 heartbeat IPC: 0.162011 cumulative IPC: 0.451581 (Simulation time: 0 hr 51 min 36 sec) 
Heartbeat CPU 0 instructions: 77000000 cycles: 155296916 heartbeat IPC: 0.313988 cumulative IPC: 0.448647 (Simulation time: 0 hr 52 min 11 sec) 
Heartbeat CPU 0 instructions: 78000002 cycles: 156995401 heartbeat IPC: 0.588761 cumulative IPC: 0.450222 (Simulation time: 0 hr 52 min 43 sec) 
Heartbeat CPU 0 instructions: 79000002 cycles: 158738736 heartbeat IPC: 0.573613 cumulative IPC: 0.45163 (Simulation time: 0 hr 53 min 15 sec) 
Heartbeat CPU 0 instructions: 80000000 cycles: 160478176 heartbeat IPC: 0.574897 cumulative IPC: 0.453018 (Simulation time: 0 hr 53 min 45 sec) 
Heartbeat CPU 0 instructions: 81000000 cycles: 162207950 heartbeat IPC: 0.57811 cumulative IPC: 0.454403 (Simulation time: 0 hr 54 min 16 sec) 
Heartbeat CPU 0 instructions: 82000003 cycles: 163855447 heartbeat IPC: 0.606983 cumulative IPC: 0.455995 (Simulation time: 0 hr 54 min 49 sec) 
Heartbeat CPU 0 instructions: 83000003 cycles: 165587743 heartbeat IPC: 0.577269 cumulative IPC: 0.457311 (Simulation time: 0 hr 55 min 17 sec) 
Heartbeat CPU 0 instructions: 84000000 cycles: 167328867 heartbeat IPC: 0.57434 cumulative IPC: 0.458574 (Simulation time: 0 hr 55 min 43 sec) 
Heartbeat CPU 0 instructions: 85000003 cycles: 169070767 heartbeat IPC: 0.574088 cumulative IPC: 0.459807 (Simulation time: 0 hr 56 min 8 sec) 
Heartbeat CPU 0 instructions: 86000000 cycles: 170767299 heartbeat IPC: 0.589436 cumulative IPC: 0.461142 (Simulation time: 0 hr 56 min 32 sec) 
Heartbeat CPU 0 instructions: 87000000 cycles: 172441779 heartbeat IPC: 0.5972 cumulative IPC: 0.46251 (Simulation time: 0 hr 56 min 57 sec) 
Heartbeat CPU 0 instructions: 88000000 cycles: 174209282 heartbeat IPC: 0.56577 cumulative IPC: 0.463595 (Simulation time: 0 hr 57 min 23 sec) 
Heartbeat CPU 0 instructions: 89000002 cycles: 179313270 heartbeat IPC: 0.195926 cumulative IPC: 0.455714 (Simulation time: 0 hr 57 min 51 sec) 
Heartbeat CPU 0 instructions: 90000002 cycles: 183574983 heartbeat IPC: 0.234647 cumulative IPC: 0.45041 (Simulation time: 0 hr 58 min 16 sec) 
Heartbeat CPU 0 instructions: 91000003 cycles: 185225044 heartbeat IPC: 0.606039 cumulative IPC: 0.451842 (Simulation time: 0 hr 58 min 38 sec) 
Heartbeat CPU 0 instructions: 92000000 cycles: 186955377 heartbeat IPC: 0.577922 cumulative IPC: 0.453048 (Simulation time: 0 hr 59 min 1 sec) 
Heartbeat CPU 0 instructions: 93000000 cycles: 188697365 heartbeat IPC: 0.574057 cumulative IPC: 0.454201 (Simulation time: 0 hr 59 min 24 sec) 
Heartbeat CPU 0 instructions: 94000003 cycles: 190441700 heartbeat IPC: 0.573286 cumulative IPC: 0.455327 (Simulation time: 0 hr 59 min 45 sec) 
Heartbeat CPU 0 instructions: 95000000 cycles: 192143815 heartbeat IPC: 0.587503 cumulative IPC: 0.456536 (Simulation time: 1 hr 0 min 7 sec) 
Heartbeat CPU 0 instructions: 96000000 cycles: 193816667 heartbeat IPC: 0.597782 cumulative IPC: 0.457793 (Simulation time: 1 hr 0 min 26 sec) 
Heartbeat CPU 0 instructions: 97000001 cycles: 195555413 heartbeat IPC: 0.575128 cumulative IPC: 0.458869 (Simulation time: 1 hr 0 min 46 sec) 
Heartbeat CPU 0 instructions: 98000000 cycles: 197298963 heartbeat IPC: 0.573542 cumulative IPC: 0.459914 (Simulation time: 1 hr 1 min 4 sec) 
Heartbeat CPU 0 instructions: 99000001 cycles: 199039666 heartbeat IPC: 0.574481 cumulative IPC: 0.460947 (Simulation time: 1 hr 1 min 20 sec) 
Heartbeat CPU 0 instructions: 100000000 cycles: 200711044 heartbeat IPC: 0.598308 cumulative IPC: 0.462126 (Simulation time: 1 hr 1 min 35 sec) 
Heartbeat CPU 0 instructions: 101000000 cycles: 202414526 heartbeat IPC: 0.587033 cumulative IPC: 0.463209 (Simulation time: 1 hr 1 min 50 sec) 
Heartbeat CPU 0 instructions: 102000002 cycles: 206433540 heartbeat IPC: 0.248818 cumulative IPC: 0.458911 (Simulation time: 1 hr 2 min 6 sec) 
Heartbeat CPU 0 instructions: 103000000 cycles: 211782481 heartbeat IPC: 0.186953 cumulative IPC: 0.451843 (Simulation time: 1 hr 2 min 22 sec) 
Heartbeat CPU 0 instructions: 104000000 cycles: 213488892 heartbeat IPC: 0.586025 cumulative IPC: 0.452947 (Simulation time: 1 hr 2 min 36 sec) 
Heartbeat CPU 0 instructions: 105000000 cycles: 215155574 heartbeat IPC: 0.599994 cumulative IPC: 0.454118 (Simulation time: 1 hr 2 min 48 sec) 
Heartbeat CPU 0 instructions: 106000002 cycles: 216892247 heartbeat IPC: 0.575815 cumulative IPC: 0.45512 (Simulation time: 1 hr 2 min 59 sec) 
Heartbeat CPU 0 instructions: 107000001 cycles: 218636592 heartbeat IPC: 0.573281 cumulative IPC: 0.456089 (Simulation time: 1 hr 3 min 10 sec) 
Heartbeat CPU 0 instructions: 108000000 cycles: 220375458 heartbeat IPC: 0.575087 cumulative IPC: 0.457054 (Simulation time: 1 hr 3 min 18 sec) 
Heartbeat CPU 0 instructions: 109000001 cycles: 222050955 heartbeat IPC: 0.596838 cumulative IPC: 0.458138 (Simulation time: 1 hr 3 min 27 sec) 
Heartbeat CPU 0 instructions: 110000003 cycles: 223746363 heartbeat IPC: 0.58983 cumulative IPC: 0.459163 (Simulation time: 1 hr 3 min 36 sec) 
Finished CPU 0 instructions: 100000000 cycles: 217787396 cummulative IPC: 0.459163 (Simulation time: 1 hr 3 min 36 sec) 

ChampSim completed all CPUs

Region of Interest Statistics

CPU 0 cummulative IPC: 0.459163 instructions: 100000000 cycles: 217787396
LLC TOTAL     ACCESS:    1164475  HIT:     275205  MISS:     889270
LLC LOAD      ACCESS:      22463  HIT:       1223  MISS:      21240
LLC RFO       ACCESS:     264086  HIT:      65402  MISS:     198684
LLC PREFETCH  ACCESS:     611815  HIT:      42150  MISS:     569665
LLC WRITEBACK ACCESS:     266111  HIT:     166430  MISS:      99681
Insertion Distribution: 
	LOAD 0 0 16245 6186 
	RFO 960 0 120968 89240 
	PREF 0 62560 309723 247429 
	WRITEBACK 0 0 0 101148 
Total Prefetch Downgrades: 57494
