
*** ChampSim Multicore Out-of-Order Simulator ***

Warmup Instructions: 10000000
Simulation Instructions: 100000000
Configuration: 2
Number of CPUs: 1
LLC sets: 2048
LLC ways: 16
Off-chip DRAM Channels: 1 Width: 64-bit Data Rate: 1600 MT/s

CPU 0 runs /datasets/cs240c-wi22-a00-public/data/Assignment2-gz/omnetpp_340B.trace.gz
CPU 0 L1D next line prefetcher
CPU 0 L2C IP-based stride prefetcher
Initialize SRRIP state
Heartbeat CPU 0 instructions: 1000001 cycles: 576944 heartbeat IPC: 1.73327 cumulative IPC: 1.73327 (Simulation time: 0 hr 0 min 39 sec) 
Heartbeat CPU 0 instructions: 2000000 cycles: 1160882 heartbeat IPC: 1.71251 cumulative IPC: 1.72283 (Simulation time: 0 hr 1 min 17 sec) 
Heartbeat CPU 0 instructions: 3000001 cycles: 1758142 heartbeat IPC: 1.67431 cumulative IPC: 1.70635 (Simulation time: 0 hr 1 min 55 sec) 
Heartbeat CPU 0 instructions: 4000000 cycles: 2378922 heartbeat IPC: 1.61088 cumulative IPC: 1.68143 (Simulation time: 0 hr 2 min 34 sec) 
Heartbeat CPU 0 instructions: 5000002 cycles: 2954349 heartbeat IPC: 1.73784 cumulative IPC: 1.69242 (Simulation time: 0 hr 3 min 11 sec) 
Heartbeat CPU 0 instructions: 6000003 cycles: 3555811 heartbeat IPC: 1.66262 cumulative IPC: 1.68738 (Simulation time: 0 hr 3 min 50 sec) 
Heartbeat CPU 0 instructions: 7000003 cycles: 4205247 heartbeat IPC: 1.5398 cumulative IPC: 1.66459 (Simulation time: 0 hr 4 min 30 sec) 
Heartbeat CPU 0 instructions: 8000000 cycles: 4799727 heartbeat IPC: 1.68214 cumulative IPC: 1.66676 (Simulation time: 0 hr 5 min 6 sec) 
Heartbeat CPU 0 instructions: 9000002 cycles: 5433064 heartbeat IPC: 1.57894 cumulative IPC: 1.65652 (Simulation time: 0 hr 5 min 48 sec) 
Heartbeat CPU 0 instructions: 10000002 cycles: 6027675 heartbeat IPC: 1.68177 cumulative IPC: 1.65901 (Simulation time: 0 hr 6 min 26 sec) 

Warmup complete CPU 0 instructions: 10000002 cycles: 6027675 (Simulation time: 0 hr 6 min 26 sec) 

Heartbeat CPU 0 instructions: 11000000 cycles: 9622687 heartbeat IPC: 0.278163 cumulative IPC: 0.278163 (Simulation time: 0 hr 7 min 12 sec) 
Heartbeat CPU 0 instructions: 12000000 cycles: 13172556 heartbeat IPC: 0.281701 cumulative IPC: 0.27992 (Simulation time: 0 hr 7 min 54 sec) 
Heartbeat CPU 0 instructions: 13000000 cycles: 16916537 heartbeat IPC: 0.267095 cumulative IPC: 0.275511 (Simulation time: 0 hr 8 min 39 sec) 
Heartbeat CPU 0 instructions: 14000001 cycles: 20801184 heartbeat IPC: 0.257424 cumulative IPC: 0.270755 (Simulation time: 0 hr 9 min 25 sec) 
Heartbeat CPU 0 instructions: 15000003 cycles: 24850284 heartbeat IPC: 0.246969 cumulative IPC: 0.265638 (Simulation time: 0 hr 10 min 17 sec) 
Heartbeat CPU 0 instructions: 16000000 cycles: 29134024 heartbeat IPC: 0.23344 cumulative IPC: 0.259669 (Simulation time: 0 hr 11 min 3 sec) 
Heartbeat CPU 0 instructions: 17000000 cycles: 32853959 heartbeat IPC: 0.268822 cumulative IPC: 0.260938 (Simulation time: 0 hr 11 min 52 sec) 
Heartbeat CPU 0 instructions: 18000000 cycles: 36737771 heartbeat IPC: 0.257479 cumulative IPC: 0.260501 (Simulation time: 0 hr 12 min 37 sec) 
Heartbeat CPU 0 instructions: 19000000 cycles: 41059431 heartbeat IPC: 0.231393 cumulative IPC: 0.25691 (Simulation time: 0 hr 13 min 23 sec) 
Heartbeat CPU 0 instructions: 20000000 cycles: 45151197 heartbeat IPC: 0.244393 cumulative IPC: 0.255601 (Simulation time: 0 hr 14 min 9 sec) 
Heartbeat CPU 0 instructions: 21000000 cycles: 48641651 heartbeat IPC: 0.286496 cumulative IPC: 0.258131 (Simulation time: 0 hr 14 min 52 sec) 
Heartbeat CPU 0 instructions: 22000001 cycles: 52443818 heartbeat IPC: 0.263008 cumulative IPC: 0.258531 (Simulation time: 0 hr 15 min 37 sec) 
Heartbeat CPU 0 instructions: 23000001 cycles: 56212868 heartbeat IPC: 0.265319 cumulative IPC: 0.259041 (Simulation time: 0 hr 16 min 21 sec) 
Heartbeat CPU 0 instructions: 24000000 cycles: 59951974 heartbeat IPC: 0.267443 cumulative IPC: 0.259623 (Simulation time: 0 hr 17 min 6 sec) 
Heartbeat CPU 0 instructions: 25000000 cycles: 63895547 heartbeat IPC: 0.253577 cumulative IPC: 0.259211 (Simulation time: 0 hr 17 min 51 sec) 
Heartbeat CPU 0 instructions: 26000001 cycles: 67889987 heartbeat IPC: 0.250348 cumulative IPC: 0.258639 (Simulation time: 0 hr 18 min 38 sec) 
Heartbeat CPU 0 instructions: 27000000 cycles: 71914415 heartbeat IPC: 0.248482 cumulative IPC: 0.258018 (Simulation time: 0 hr 19 min 26 sec) 
Heartbeat CPU 0 instructions: 28000000 cycles: 75991509 heartbeat IPC: 0.245273 cumulative IPC: 0.257276 (Simulation time: 0 hr 20 min 16 sec) 
Heartbeat CPU 0 instructions: 29000003 cycles: 80026248 heartbeat IPC: 0.247848 cumulative IPC: 0.256762 (Simulation time: 0 hr 21 min 1 sec) 
Heartbeat CPU 0 instructions: 30000000 cycles: 83792658 heartbeat IPC: 0.265504 cumulative IPC: 0.257185 (Simulation time: 0 hr 21 min 43 sec) 
Heartbeat CPU 0 instructions: 31000000 cycles: 87642826 heartbeat IPC: 0.259729 cumulative IPC: 0.257305 (Simulation time: 0 hr 22 min 28 sec) 
Heartbeat CPU 0 instructions: 32000000 cycles: 91342245 heartbeat IPC: 0.270313 cumulative IPC: 0.257869 (Simulation time: 0 hr 23 min 14 sec) 
Heartbeat CPU 0 instructions: 33000003 cycles: 95062768 heartbeat IPC: 0.26878 cumulative IPC: 0.258325 (Simulation time: 0 hr 23 min 58 sec) 
Heartbeat CPU 0 instructions: 34000001 cycles: 99207315 heartbeat IPC: 0.24128 cumulative IPC: 0.257567 (Simulation time: 0 hr 24 min 44 sec) 
Heartbeat CPU 0 instructions: 35000002 cycles: 102711234 heartbeat IPC: 0.285395 cumulative IPC: 0.258575 (Simulation time: 0 hr 25 min 27 sec) 
Heartbeat CPU 0 instructions: 36000000 cycles: 107007073 heartbeat IPC: 0.232783 cumulative IPC: 0.257478 (Simulation time: 0 hr 26 min 12 sec) 
Heartbeat CPU 0 instructions: 37000000 cycles: 111452860 heartbeat IPC: 0.224932 cumulative IPC: 0.256106 (Simulation time: 0 hr 26 min 59 sec) 
Heartbeat CPU 0 instructions: 38000000 cycles: 115235004 heartbeat IPC: 0.2644 cumulative IPC: 0.256393 (Simulation time: 0 hr 27 min 42 sec) 
Heartbeat CPU 0 instructions: 39000001 cycles: 119440340 heartbeat IPC: 0.237793 cumulative IPC: 0.255703 (Simulation time: 0 hr 28 min 25 sec) 
Heartbeat CPU 0 instructions: 40000000 cycles: 122920353 heartbeat IPC: 0.287355 cumulative IPC: 0.256646 (Simulation time: 0 hr 29 min 10 sec) 
Heartbeat CPU 0 instructions: 41000000 cycles: 126614670 heartbeat IPC: 0.270686 cumulative IPC: 0.257076 (Simulation time: 0 hr 29 min 55 sec) 
Heartbeat CPU 0 instructions: 42000001 cycles: 130913447 heartbeat IPC: 0.232625 cumulative IPC: 0.256234 (Simulation time: 0 hr 30 min 40 sec) 
Heartbeat CPU 0 instructions: 43000001 cycles: 135041411 heartbeat IPC: 0.24225 cumulative IPC: 0.255787 (Simulation time: 0 hr 31 min 23 sec) 
Heartbeat CPU 0 instructions: 44000000 cycles: 138807096 heartbeat IPC: 0.265556 cumulative IPC: 0.256064 (Simulation time: 0 hr 32 min 7 sec) 
Heartbeat CPU 0 instructions: 45000003 cycles: 142736826 heartbeat IPC: 0.254471 cumulative IPC: 0.256018 (Simulation time: 0 hr 32 min 51 sec) 
Heartbeat CPU 0 instructions: 46000003 cycles: 146798071 heartbeat IPC: 0.24623 cumulative IPC: 0.255736 (Simulation time: 0 hr 33 min 37 sec) 
Heartbeat CPU 0 instructions: 47000000 cycles: 149959094 heartbeat IPC: 0.316352 cumulative IPC: 0.257067 (Simulation time: 0 hr 34 min 20 sec) 
Heartbeat CPU 0 instructions: 48000000 cycles: 153937408 heartbeat IPC: 0.251363 cumulative IPC: 0.256913 (Simulation time: 0 hr 35 min 4 sec) 
Heartbeat CPU 0 instructions: 49000000 cycles: 156964487 heartbeat IPC: 0.330351 cumulative IPC: 0.258386 (Simulation time: 0 hr 35 min 44 sec) 
Heartbeat CPU 0 instructions: 50000001 cycles: 161038696 heartbeat IPC: 0.245447 cumulative IPC: 0.258046 (Simulation time: 0 hr 36 min 26 sec) 
Heartbeat CPU 0 instructions: 51000003 cycles: 164745196 heartbeat IPC: 0.269797 cumulative IPC: 0.258321 (Simulation time: 0 hr 37 min 10 sec) 
Heartbeat CPU 0 instructions: 52000000 cycles: 168765610 heartbeat IPC: 0.24873 cumulative IPC: 0.258084 (Simulation time: 0 hr 38 min 2 sec) 
Heartbeat CPU 0 instructions: 53000000 cycles: 173364838 heartbeat IPC: 0.217428 cumulative IPC: 0.256966 (Simulation time: 0 hr 38 min 48 sec) 
Heartbeat CPU 0 instructions: 54000002 cycles: 177512895 heartbeat IPC: 0.241077 cumulative IPC: 0.256582 (Simulation time: 0 hr 39 min 31 sec) 
Heartbeat CPU 0 instructions: 55000001 cycles: 181401594 heartbeat IPC: 0.257155 cumulative IPC: 0.256595 (Simulation time: 0 hr 40 min 18 sec) 
Heartbeat CPU 0 instructions: 56000000 cycles: 185737098 heartbeat IPC: 0.230653 cumulative IPC: 0.255969 (Simulation time: 0 hr 41 min 5 sec) 
Heartbeat CPU 0 instructions: 57000001 cycles: 189859493 heartbeat IPC: 0.242578 cumulative IPC: 0.255668 (Simulation time: 0 hr 41 min 51 sec) 
Heartbeat CPU 0 instructions: 58000000 cycles: 193182803 heartbeat IPC: 0.300905 cumulative IPC: 0.256472 (Simulation time: 0 hr 42 min 38 sec) 
Heartbeat CPU 0 instructions: 59000003 cycles: 197137766 heartbeat IPC: 0.252848 cumulative IPC: 0.256397 (Simulation time: 0 hr 43 min 26 sec) 
Heartbeat CPU 0 instructions: 60000000 cycles: 201593034 heartbeat IPC: 0.224453 cumulative IPC: 0.255669 (Simulation time: 0 hr 44 min 16 sec) 
Heartbeat CPU 0 instructions: 61000001 cycles: 206072743 heartbeat IPC: 0.223229 cumulative IPC: 0.254943 (Simulation time: 0 hr 45 min 1 sec) 
Heartbeat CPU 0 instructions: 62000000 cycles: 210560020 heartbeat IPC: 0.222852 cumulative IPC: 0.254239 (Simulation time: 0 hr 45 min 43 sec) 
Heartbeat CPU 0 instructions: 63000001 cycles: 214369929 heartbeat IPC: 0.262474 cumulative IPC: 0.254389 (Simulation time: 0 hr 46 min 25 sec) 
Heartbeat CPU 0 instructions: 64000000 cycles: 218228394 heartbeat IPC: 0.25917 cumulative IPC: 0.254476 (Simulation time: 0 hr 47 min 5 sec) 
Heartbeat CPU 0 instructions: 65000001 cycles: 221605282 heartbeat IPC: 0.296131 cumulative IPC: 0.255129 (Simulation time: 0 hr 47 min 46 sec) 
Heartbeat CPU 0 instructions: 66000002 cycles: 225625900 heartbeat IPC: 0.248718 cumulative IPC: 0.255011 (Simulation time: 0 hr 48 min 25 sec) 
Heartbeat CPU 0 instructions: 67000002 cycles: 229383691 heartbeat IPC: 0.266114 cumulative IPC: 0.255198 (Simulation time: 0 hr 49 min 5 sec) 
Heartbeat CPU 0 instructions: 68000000 cycles: 233193935 heartbeat IPC: 0.26245 cumulative IPC: 0.25532 (Simulation time: 0 hr 49 min 47 sec) 
Heartbeat CPU 0 instructions: 69000000 cycles: 237097005 heartbeat IPC: 0.256209 cumulative IPC: 0.255335 (Simulation time: 0 hr 50 min 29 sec) 
Heartbeat CPU 0 instructions: 70000001 cycles: 240635831 heartbeat IPC: 0.28258 cumulative IPC: 0.255746 (Simulation time: 0 hr 51 min 7 sec) 
Heartbeat CPU 0 instructions: 71000003 cycles: 244514481 heartbeat IPC: 0.257822 cumulative IPC: 0.255779 (Simulation time: 0 hr 51 min 47 sec) 
Heartbeat CPU 0 instructions: 72000000 cycles: 248968324 heartbeat IPC: 0.224525 cumulative IPC: 0.255206 (Simulation time: 0 hr 52 min 28 sec) 
Heartbeat CPU 0 instructions: 73000002 cycles: 252969401 heartbeat IPC: 0.249933 cumulative IPC: 0.255121 (Simulation time: 0 hr 53 min 4 sec) 
Heartbeat CPU 0 instructions: 74000000 cycles: 256716316 heartbeat IPC: 0.266886 cumulative IPC: 0.255297 (Simulation time: 0 hr 53 min 39 sec) 
Heartbeat CPU 0 instructions: 75000003 cycles: 260774986 heartbeat IPC: 0.246387 cumulative IPC: 0.255155 (Simulation time: 0 hr 54 min 16 sec) 
Heartbeat CPU 0 instructions: 76000000 cycles: 264624063 heartbeat IPC: 0.259802 cumulative IPC: 0.255224 (Simulation time: 0 hr 54 min 50 sec) 
Heartbeat CPU 0 instructions: 77000002 cycles: 269314243 heartbeat IPC: 0.213212 cumulative IPC: 0.254476 (Simulation time: 0 hr 55 min 19 sec) 
Heartbeat CPU 0 instructions: 78000003 cycles: 273184427 heartbeat IPC: 0.258386 cumulative IPC: 0.254532 (Simulation time: 0 hr 55 min 46 sec) 
Heartbeat CPU 0 instructions: 79000002 cycles: 277085235 heartbeat IPC: 0.256357 cumulative IPC: 0.254558 (Simulation time: 0 hr 56 min 13 sec) 
Heartbeat CPU 0 instructions: 80000000 cycles: 280893380 heartbeat IPC: 0.262595 cumulative IPC: 0.25467 (Simulation time: 0 hr 56 min 39 sec) 
Heartbeat CPU 0 instructions: 81000002 cycles: 285040368 heartbeat IPC: 0.241139 cumulative IPC: 0.254469 (Simulation time: 0 hr 57 min 7 sec) 
Heartbeat CPU 0 instructions: 82000000 cycles: 289539250 heartbeat IPC: 0.222277 cumulative IPC: 0.253958 (Simulation time: 0 hr 57 min 36 sec) 
Heartbeat CPU 0 instructions: 83000002 cycles: 293277646 heartbeat IPC: 0.267495 cumulative IPC: 0.254134 (Simulation time: 0 hr 58 min 2 sec) 
Heartbeat CPU 0 instructions: 84000000 cycles: 297243656 heartbeat IPC: 0.252142 cumulative IPC: 0.254107 (Simulation time: 0 hr 58 min 28 sec) 
Heartbeat CPU 0 instructions: 85000000 cycles: 301046741 heartbeat IPC: 0.262944 cumulative IPC: 0.254221 (Simulation time: 0 hr 58 min 54 sec) 
Heartbeat CPU 0 instructions: 86000000 cycles: 305001255 heartbeat IPC: 0.252876 cumulative IPC: 0.254203 (Simulation time: 0 hr 59 min 20 sec) 
Heartbeat CPU 0 instructions: 87000001 cycles: 308770604 heartbeat IPC: 0.265298 cumulative IPC: 0.254341 (Simulation time: 0 hr 59 min 45 sec) 
Heartbeat CPU 0 instructions: 88000000 cycles: 312560563 heartbeat IPC: 0.263855 cumulative IPC: 0.254459 (Simulation time: 1 hr 0 min 7 sec) 
Heartbeat CPU 0 instructions: 89000003 cycles: 316033740 heartbeat IPC: 0.287922 cumulative IPC: 0.254834 (Simulation time: 1 hr 0 min 27 sec) 
Heartbeat CPU 0 instructions: 90000000 cycles: 319846425 heartbeat IPC: 0.262282 cumulative IPC: 0.254924 (Simulation time: 1 hr 0 min 47 sec) 
Heartbeat CPU 0 instructions: 91000001 cycles: 323356946 heartbeat IPC: 0.284858 cumulative IPC: 0.255255 (Simulation time: 1 hr 1 min 6 sec) 
Heartbeat CPU 0 instructions: 92000000 cycles: 327403023 heartbeat IPC: 0.247153 cumulative IPC: 0.255153 (Simulation time: 1 hr 1 min 25 sec) 
Heartbeat CPU 0 instructions: 93000001 cycles: 331848049 heartbeat IPC: 0.224971 cumulative IPC: 0.254742 (Simulation time: 1 hr 1 min 46 sec) 
Heartbeat CPU 0 instructions: 94000001 cycles: 335700486 heartbeat IPC: 0.259576 cumulative IPC: 0.254798 (Simulation time: 1 hr 2 min 4 sec) 
Heartbeat CPU 0 instructions: 95000000 cycles: 339713815 heartbeat IPC: 0.249169 cumulative IPC: 0.25473 (Simulation time: 1 hr 2 min 23 sec) 
Heartbeat CPU 0 instructions: 96000000 cycles: 344077625 heartbeat IPC: 0.229158 cumulative IPC: 0.2544 (Simulation time: 1 hr 2 min 38 sec) 
Heartbeat CPU 0 instructions: 97000000 cycles: 347705166 heartbeat IPC: 0.275669 cumulative IPC: 0.254626 (Simulation time: 1 hr 2 min 52 sec) 
Heartbeat CPU 0 instructions: 98000000 cycles: 351977952 heartbeat IPC: 0.234039 cumulative IPC: 0.254372 (Simulation time: 1 hr 3 min 6 sec) 
Heartbeat CPU 0 instructions: 99000000 cycles: 356480108 heartbeat IPC: 0.222116 cumulative IPC: 0.253957 (Simulation time: 1 hr 3 min 16 sec) 
Heartbeat CPU 0 instructions: 100000000 cycles: 360546667 heartbeat IPC: 0.245908 cumulative IPC: 0.253865 (Simulation time: 1 hr 3 min 25 sec) 
Heartbeat CPU 0 instructions: 101000000 cycles: 364455995 heartbeat IPC: 0.255798 cumulative IPC: 0.253886 (Simulation time: 1 hr 3 min 35 sec) 
Heartbeat CPU 0 instructions: 102000003 cycles: 368619633 heartbeat IPC: 0.240175 cumulative IPC: 0.253729 (Simulation time: 1 hr 3 min 44 sec) 
Heartbeat CPU 0 instructions: 103000000 cycles: 372458614 heartbeat IPC: 0.260485 cumulative IPC: 0.2538 (Simulation time: 1 hr 3 min 51 sec) 
Heartbeat CPU 0 instructions: 104000000 cycles: 376213755 heartbeat IPC: 0.266302 cumulative IPC: 0.253926 (Simulation time: 1 hr 3 min 57 sec) 
Heartbeat CPU 0 instructions: 105000003 cycles: 380193911 heartbeat IPC: 0.251247 cumulative IPC: 0.253898 (Simulation time: 1 hr 4 min 3 sec) 
Heartbeat CPU 0 instructions: 106000001 cycles: 383741396 heartbeat IPC: 0.281889 cumulative IPC: 0.254161 (Simulation time: 1 hr 4 min 9 sec) 
Heartbeat CPU 0 instructions: 107000000 cycles: 387917280 heartbeat IPC: 0.23947 cumulative IPC: 0.254 (Simulation time: 1 hr 4 min 16 sec) 
Heartbeat CPU 0 instructions: 108000000 cycles: 391926265 heartbeat IPC: 0.24944 cumulative IPC: 0.253953 (Simulation time: 1 hr 4 min 23 sec) 
Heartbeat CPU 0 instructions: 109000000 cycles: 396395336 heartbeat IPC: 0.22376 cumulative IPC: 0.253607 (Simulation time: 1 hr 4 min 30 sec) 
Heartbeat CPU 0 instructions: 110000000 cycles: 400050331 heartbeat IPC: 0.273598 cumulative IPC: 0.253792 (Simulation time: 1 hr 4 min 36 sec) 
Finished CPU 0 instructions: 100000000 cycles: 394022660 cummulative IPC: 0.253793 (Simulation time: 1 hr 4 min 36 sec) 

ChampSim completed all CPUs

Region of Interest Statistics

CPU 0 cummulative IPC: 0.253793 instructions: 100000000 cycles: 394022660
LLC TOTAL     ACCESS:    4309254  HIT:    1649542  MISS:    2659712
LLC LOAD      ACCESS:    1522387  HIT:     430988  MISS:    1091399
LLC RFO       ACCESS:     250130  HIT:      77530  MISS:     172600
LLC PREFETCH  ACCESS:    1530705  HIT:     284445  MISS:    1246260
LLC WRITEBACK ACCESS:    1006032  HIT:     856579  MISS:     149453
Insertion Distribution: 
	LOAD 210297 0 637552 341765 
	RFO 68995 0 98530 21824 
	PREF 0 21566 752398 611098 
	WRITEBACK 0 0 0 163079 
Total Prefetch Downgrades: 45774
