
*** ChampSim Multicore Out-of-Order Simulator ***

Warmup Instructions: 10000000
Simulation Instructions: 100000000
Configuration: 2
Number of CPUs: 1
LLC sets: 2048
LLC ways: 16
Off-chip DRAM Channels: 1 Width: 64-bit Data Rate: 1600 MT/s

CPU 0 runs /datasets/cs240c-wi22-a00-public/data/Assignment2-gz/GemsFDTD_712B.trace.gz
CPU 0 L1D next line prefetcher
CPU 0 L2C IP-based stride prefetcher
Initialize SRRIP state
Heartbeat CPU 0 instructions: 1000003 cycles: 634340 heartbeat IPC: 1.57645 cumulative IPC: 1.57645 (Simulation time: 0 hr 0 min 35 sec) 
Heartbeat CPU 0 instructions: 2000000 cycles: 1268307 heartbeat IPC: 1.57736 cumulative IPC: 1.57691 (Simulation time: 0 hr 1 min 9 sec) 
Heartbeat CPU 0 instructions: 3000000 cycles: 1902379 heartbeat IPC: 1.57711 cumulative IPC: 1.57697 (Simulation time: 0 hr 1 min 43 sec) 
Heartbeat CPU 0 instructions: 4000000 cycles: 2536185 heartbeat IPC: 1.57777 cumulative IPC: 1.57717 (Simulation time: 0 hr 2 min 23 sec) 
Heartbeat CPU 0 instructions: 5000003 cycles: 3170415 heartbeat IPC: 1.57672 cumulative IPC: 1.57708 (Simulation time: 0 hr 2 min 59 sec) 
Heartbeat CPU 0 instructions: 6000002 cycles: 3804314 heartbeat IPC: 1.57754 cumulative IPC: 1.57716 (Simulation time: 0 hr 3 min 34 sec) 
Heartbeat CPU 0 instructions: 7000001 cycles: 4438493 heartbeat IPC: 1.57684 cumulative IPC: 1.57711 (Simulation time: 0 hr 4 min 10 sec) 
Heartbeat CPU 0 instructions: 8000000 cycles: 5072335 heartbeat IPC: 1.57768 cumulative IPC: 1.57718 (Simulation time: 0 hr 4 min 44 sec) 
Heartbeat CPU 0 instructions: 9000001 cycles: 5706460 heartbeat IPC: 1.57698 cumulative IPC: 1.57716 (Simulation time: 0 hr 5 min 19 sec) 
Heartbeat CPU 0 instructions: 10000002 cycles: 6340250 heartbeat IPC: 1.57781 cumulative IPC: 1.57723 (Simulation time: 0 hr 5 min 54 sec) 

Warmup complete CPU 0 instructions: 10000002 cycles: 6340250 (Simulation time: 0 hr 5 min 54 sec) 

Heartbeat CPU 0 instructions: 11000001 cycles: 7950405 heartbeat IPC: 0.621058 cumulative IPC: 0.621058 (Simulation time: 0 hr 6 min 34 sec) 
Heartbeat CPU 0 instructions: 12000000 cycles: 9563003 heartbeat IPC: 0.620117 cumulative IPC: 0.620587 (Simulation time: 0 hr 7 min 14 sec) 
Heartbeat CPU 0 instructions: 13000000 cycles: 11155167 heartbeat IPC: 0.628076 cumulative IPC: 0.623063 (Simulation time: 0 hr 7 min 52 sec) 
Heartbeat CPU 0 instructions: 14000001 cycles: 12727512 heartbeat IPC: 0.635993 cumulative IPC: 0.626246 (Simulation time: 0 hr 8 min 31 sec) 
Heartbeat CPU 0 instructions: 15000001 cycles: 14304038 heartbeat IPC: 0.634306 cumulative IPC: 0.627842 (Simulation time: 0 hr 9 min 11 sec) 
Heartbeat CPU 0 instructions: 16000000 cycles: 15919689 heartbeat IPC: 0.618945 cumulative IPC: 0.626341 (Simulation time: 0 hr 9 min 53 sec) 
Heartbeat CPU 0 instructions: 17000000 cycles: 17509169 heartbeat IPC: 0.629137 cumulative IPC: 0.626739 (Simulation time: 0 hr 10 min 32 sec) 
Heartbeat CPU 0 instructions: 18000003 cycles: 19124663 heartbeat IPC: 0.619008 cumulative IPC: 0.625762 (Simulation time: 0 hr 11 min 12 sec) 
Heartbeat CPU 0 instructions: 19000003 cycles: 20702449 heartbeat IPC: 0.633799 cumulative IPC: 0.626645 (Simulation time: 0 hr 11 min 51 sec) 
Heartbeat CPU 0 instructions: 20000000 cycles: 22284017 heartbeat IPC: 0.632282 cumulative IPC: 0.627204 (Simulation time: 0 hr 12 min 30 sec) 
Heartbeat CPU 0 instructions: 21000002 cycles: 23879676 heartbeat IPC: 0.626702 cumulative IPC: 0.627159 (Simulation time: 0 hr 13 min 7 sec) 
Heartbeat CPU 0 instructions: 22000001 cycles: 25485411 heartbeat IPC: 0.622767 cumulative IPC: 0.62679 (Simulation time: 0 hr 13 min 47 sec) 
Heartbeat CPU 0 instructions: 23000000 cycles: 27060024 heartbeat IPC: 0.635076 cumulative IPC: 0.62742 (Simulation time: 0 hr 14 min 25 sec) 
Heartbeat CPU 0 instructions: 24000000 cycles: 28685772 heartbeat IPC: 0.615101 cumulative IPC: 0.626524 (Simulation time: 0 hr 15 min 2 sec) 
Heartbeat CPU 0 instructions: 25000000 cycles: 30286604 heartbeat IPC: 0.624675 cumulative IPC: 0.6264 (Simulation time: 0 hr 15 min 42 sec) 
Heartbeat CPU 0 instructions: 26000002 cycles: 31875514 heartbeat IPC: 0.629364 cumulative IPC: 0.626584 (Simulation time: 0 hr 16 min 24 sec) 
Heartbeat CPU 0 instructions: 27000002 cycles: 33482873 heartbeat IPC: 0.622139 cumulative IPC: 0.626321 (Simulation time: 0 hr 17 min 3 sec) 
Heartbeat CPU 0 instructions: 28000000 cycles: 35076277 heartbeat IPC: 0.627586 cumulative IPC: 0.626391 (Simulation time: 0 hr 17 min 43 sec) 
Heartbeat CPU 0 instructions: 29000002 cycles: 36659720 heartbeat IPC: 0.631536 cumulative IPC: 0.62666 (Simulation time: 0 hr 18 min 22 sec) 
Heartbeat CPU 0 instructions: 30000003 cycles: 38240548 heartbeat IPC: 0.632581 cumulative IPC: 0.626953 (Simulation time: 0 hr 19 min 2 sec) 
Heartbeat CPU 0 instructions: 31000000 cycles: 39846465 heartbeat IPC: 0.622695 cumulative IPC: 0.626749 (Simulation time: 0 hr 19 min 40 sec) 
Heartbeat CPU 0 instructions: 32000000 cycles: 41447988 heartbeat IPC: 0.624406 cumulative IPC: 0.626642 (Simulation time: 0 hr 20 min 17 sec) 
Heartbeat CPU 0 instructions: 33000000 cycles: 43029690 heartbeat IPC: 0.63223 cumulative IPC: 0.626883 (Simulation time: 0 hr 20 min 53 sec) 
Heartbeat CPU 0 instructions: 34000002 cycles: 44589338 heartbeat IPC: 0.641172 cumulative IPC: 0.627466 (Simulation time: 0 hr 21 min 30 sec) 
Heartbeat CPU 0 instructions: 35000000 cycles: 46166774 heartbeat IPC: 0.633939 cumulative IPC: 0.627722 (Simulation time: 0 hr 22 min 8 sec) 
Heartbeat CPU 0 instructions: 36000000 cycles: 47765944 heartbeat IPC: 0.625324 cumulative IPC: 0.62763 (Simulation time: 0 hr 22 min 47 sec) 
Heartbeat CPU 0 instructions: 37000001 cycles: 49323282 heartbeat IPC: 0.642122 cumulative IPC: 0.628155 (Simulation time: 0 hr 23 min 26 sec) 
Heartbeat CPU 0 instructions: 38000002 cycles: 50907724 heartbeat IPC: 0.631138 cumulative IPC: 0.628261 (Simulation time: 0 hr 24 min 8 sec) 
Heartbeat CPU 0 instructions: 39000000 cycles: 52520606 heartbeat IPC: 0.620007 cumulative IPC: 0.627973 (Simulation time: 0 hr 24 min 47 sec) 
Heartbeat CPU 0 instructions: 40000000 cycles: 54068225 heartbeat IPC: 0.646154 cumulative IPC: 0.628562 (Simulation time: 0 hr 25 min 26 sec) 
Heartbeat CPU 0 instructions: 41000003 cycles: 55651358 heartbeat IPC: 0.631661 cumulative IPC: 0.628662 (Simulation time: 0 hr 26 min 4 sec) 
Heartbeat CPU 0 instructions: 42000000 cycles: 57246969 heartbeat IPC: 0.626717 cumulative IPC: 0.628601 (Simulation time: 0 hr 26 min 43 sec) 
Heartbeat CPU 0 instructions: 43000001 cycles: 58838502 heartbeat IPC: 0.628326 cumulative IPC: 0.628592 (Simulation time: 0 hr 27 min 25 sec) 
Heartbeat CPU 0 instructions: 44000000 cycles: 60414085 heartbeat IPC: 0.634685 cumulative IPC: 0.62877 (Simulation time: 0 hr 28 min 3 sec) 
Heartbeat CPU 0 instructions: 45000002 cycles: 61992732 heartbeat IPC: 0.633455 cumulative IPC: 0.628903 (Simulation time: 0 hr 28 min 42 sec) 
Heartbeat CPU 0 instructions: 46000002 cycles: 63552847 heartbeat IPC: 0.640978 cumulative IPC: 0.629232 (Simulation time: 0 hr 29 min 23 sec) 
Heartbeat CPU 0 instructions: 47000001 cycles: 65145667 heartbeat IPC: 0.627817 cumulative IPC: 0.629194 (Simulation time: 0 hr 30 min 2 sec) 
Heartbeat CPU 0 instructions: 48000000 cycles: 66735296 heartbeat IPC: 0.629077 cumulative IPC: 0.629191 (Simulation time: 0 hr 30 min 39 sec) 
Heartbeat CPU 0 instructions: 49000000 cycles: 68308046 heartbeat IPC: 0.635829 cumulative IPC: 0.629359 (Simulation time: 0 hr 31 min 16 sec) 
Heartbeat CPU 0 instructions: 50000001 cycles: 69912658 heartbeat IPC: 0.623204 cumulative IPC: 0.629204 (Simulation time: 0 hr 31 min 54 sec) 
Heartbeat CPU 0 instructions: 51000002 cycles: 71512195 heartbeat IPC: 0.625182 cumulative IPC: 0.629105 (Simulation time: 0 hr 32 min 34 sec) 
Heartbeat CPU 0 instructions: 52000000 cycles: 73102843 heartbeat IPC: 0.628673 cumulative IPC: 0.629095 (Simulation time: 0 hr 33 min 17 sec) 
Heartbeat CPU 0 instructions: 53000000 cycles: 74714977 heartbeat IPC: 0.620296 cumulative IPC: 0.628887 (Simulation time: 0 hr 33 min 54 sec) 
Heartbeat CPU 0 instructions: 54000000 cycles: 76282678 heartbeat IPC: 0.637877 cumulative IPC: 0.629089 (Simulation time: 0 hr 34 min 35 sec) 
Heartbeat CPU 0 instructions: 55000003 cycles: 77848726 heartbeat IPC: 0.638552 cumulative IPC: 0.629296 (Simulation time: 0 hr 35 min 17 sec) 
Heartbeat CPU 0 instructions: 56000000 cycles: 79450962 heartbeat IPC: 0.624126 cumulative IPC: 0.629183 (Simulation time: 0 hr 35 min 58 sec) 
Heartbeat CPU 0 instructions: 57000000 cycles: 81075544 heartbeat IPC: 0.615543 cumulative IPC: 0.628886 (Simulation time: 0 hr 36 min 37 sec) 
Heartbeat CPU 0 instructions: 58000001 cycles: 82672894 heartbeat IPC: 0.626037 cumulative IPC: 0.628827 (Simulation time: 0 hr 37 min 17 sec) 
Heartbeat CPU 0 instructions: 59000001 cycles: 84276430 heartbeat IPC: 0.623622 cumulative IPC: 0.62872 (Simulation time: 0 hr 37 min 58 sec) 
Heartbeat CPU 0 instructions: 60000000 cycles: 85876610 heartbeat IPC: 0.624929 cumulative IPC: 0.628643 (Simulation time: 0 hr 38 min 35 sec) 
Heartbeat CPU 0 instructions: 61000001 cycles: 87437835 heartbeat IPC: 0.640523 cumulative IPC: 0.628872 (Simulation time: 0 hr 39 min 13 sec) 
Heartbeat CPU 0 instructions: 62000000 cycles: 89006403 heartbeat IPC: 0.637524 cumulative IPC: 0.629036 (Simulation time: 0 hr 39 min 50 sec) 
Heartbeat CPU 0 instructions: 63000003 cycles: 90586632 heartbeat IPC: 0.632822 cumulative IPC: 0.629107 (Simulation time: 0 hr 40 min 29 sec) 
Heartbeat CPU 0 instructions: 64000000 cycles: 92186290 heartbeat IPC: 0.625132 cumulative IPC: 0.629033 (Simulation time: 0 hr 41 min 8 sec) 
Heartbeat CPU 0 instructions: 65000003 cycles: 93799131 heartbeat IPC: 0.620026 cumulative IPC: 0.628867 (Simulation time: 0 hr 41 min 48 sec) 
Heartbeat CPU 0 instructions: 66000002 cycles: 95364959 heartbeat IPC: 0.638639 cumulative IPC: 0.629039 (Simulation time: 0 hr 42 min 28 sec) 
Heartbeat CPU 0 instructions: 67000000 cycles: 96938522 heartbeat IPC: 0.635499 cumulative IPC: 0.629151 (Simulation time: 0 hr 43 min 10 sec) 
Heartbeat CPU 0 instructions: 68000000 cycles: 98519017 heartbeat IPC: 0.632713 cumulative IPC: 0.629212 (Simulation time: 0 hr 43 min 49 sec) 
Heartbeat CPU 0 instructions: 69000001 cycles: 100084700 heartbeat IPC: 0.6387 cumulative IPC: 0.629371 (Simulation time: 0 hr 44 min 27 sec) 
Heartbeat CPU 0 instructions: 70000002 cycles: 101705909 heartbeat IPC: 0.616824 cumulative IPC: 0.629157 (Simulation time: 0 hr 45 min 7 sec) 
Heartbeat CPU 0 instructions: 71000002 cycles: 103338096 heartbeat IPC: 0.612675 cumulative IPC: 0.62888 (Simulation time: 0 hr 45 min 45 sec) 
Heartbeat CPU 0 instructions: 72000000 cycles: 105024164 heartbeat IPC: 0.593095 cumulative IPC: 0.628269 (Simulation time: 0 hr 46 min 24 sec) 
Heartbeat CPU 0 instructions: 73000000 cycles: 106706088 heartbeat IPC: 0.594557 cumulative IPC: 0.627704 (Simulation time: 0 hr 47 min 4 sec) 
Heartbeat CPU 0 instructions: 74000001 cycles: 108412499 heartbeat IPC: 0.586026 cumulative IPC: 0.627007 (Simulation time: 0 hr 47 min 45 sec) 
Heartbeat CPU 0 instructions: 75000003 cycles: 110094113 heartbeat IPC: 0.594668 cumulative IPC: 0.626483 (Simulation time: 0 hr 48 min 24 sec) 
Heartbeat CPU 0 instructions: 76000000 cycles: 111775786 heartbeat IPC: 0.594644 cumulative IPC: 0.625975 (Simulation time: 0 hr 49 min 4 sec) 
Heartbeat CPU 0 instructions: 77000000 cycles: 113471286 heartbeat IPC: 0.589797 cumulative IPC: 0.625402 (Simulation time: 0 hr 49 min 45 sec) 
Heartbeat CPU 0 instructions: 78000001 cycles: 115160679 heartbeat IPC: 0.591929 cumulative IPC: 0.624883 (Simulation time: 0 hr 50 min 24 sec) 
Heartbeat CPU 0 instructions: 79000003 cycles: 116849643 heartbeat IPC: 0.59208 cumulative IPC: 0.624381 (Simulation time: 0 hr 51 min 0 sec) 
Heartbeat CPU 0 instructions: 80000000 cycles: 118550556 heartbeat IPC: 0.587918 cumulative IPC: 0.623829 (Simulation time: 0 hr 51 min 36 sec) 
Heartbeat CPU 0 instructions: 81000001 cycles: 120246100 heartbeat IPC: 0.589782 cumulative IPC: 0.623322 (Simulation time: 0 hr 52 min 10 sec) 
Heartbeat CPU 0 instructions: 82000000 cycles: 121937645 heartbeat IPC: 0.591175 cumulative IPC: 0.622851 (Simulation time: 0 hr 52 min 43 sec) 
Heartbeat CPU 0 instructions: 83000001 cycles: 123628430 heartbeat IPC: 0.591442 cumulative IPC: 0.622399 (Simulation time: 0 hr 53 min 16 sec) 
Heartbeat CPU 0 instructions: 84000000 cycles: 125320488 heartbeat IPC: 0.590996 cumulative IPC: 0.621952 (Simulation time: 0 hr 53 min 47 sec) 
Heartbeat CPU 0 instructions: 85000000 cycles: 127010633 heartbeat IPC: 0.591665 cumulative IPC: 0.621528 (Simulation time: 0 hr 54 min 16 sec) 
Heartbeat CPU 0 instructions: 86000000 cycles: 128688222 heartbeat IPC: 0.596094 cumulative IPC: 0.621179 (Simulation time: 0 hr 54 min 46 sec) 
Heartbeat CPU 0 instructions: 87000001 cycles: 130380855 heartbeat IPC: 0.590796 cumulative IPC: 0.620764 (Simulation time: 0 hr 55 min 14 sec) 
Heartbeat CPU 0 instructions: 88000000 cycles: 132066935 heartbeat IPC: 0.593091 cumulative IPC: 0.620393 (Simulation time: 0 hr 55 min 40 sec) 
Heartbeat CPU 0 instructions: 89000003 cycles: 133755448 heartbeat IPC: 0.592239 cumulative IPC: 0.62002 (Simulation time: 0 hr 56 min 6 sec) 
Heartbeat CPU 0 instructions: 90000001 cycles: 135451370 heartbeat IPC: 0.589649 cumulative IPC: 0.619621 (Simulation time: 0 hr 56 min 32 sec) 
Heartbeat CPU 0 instructions: 91000001 cycles: 137132590 heartbeat IPC: 0.594806 cumulative IPC: 0.619302 (Simulation time: 0 hr 56 min 58 sec) 
Heartbeat CPU 0 instructions: 92000000 cycles: 138823716 heartbeat IPC: 0.591321 cumulative IPC: 0.618945 (Simulation time: 0 hr 57 min 25 sec) 
Heartbeat CPU 0 instructions: 93000003 cycles: 140510062 heartbeat IPC: 0.593 cumulative IPC: 0.618619 (Simulation time: 0 hr 57 min 50 sec) 
Heartbeat CPU 0 instructions: 94000002 cycles: 142198840 heartbeat IPC: 0.592144 cumulative IPC: 0.61829 (Simulation time: 0 hr 58 min 15 sec) 
Heartbeat CPU 0 instructions: 95000000 cycles: 143898172 heartbeat IPC: 0.588465 cumulative IPC: 0.617922 (Simulation time: 0 hr 58 min 39 sec) 
Heartbeat CPU 0 instructions: 96000000 cycles: 145589293 heartbeat IPC: 0.591324 cumulative IPC: 0.617598 (Simulation time: 0 hr 59 min 3 sec) 
Heartbeat CPU 0 instructions: 97000003 cycles: 147279889 heartbeat IPC: 0.591509 cumulative IPC: 0.617286 (Simulation time: 0 hr 59 min 26 sec) 
Heartbeat CPU 0 instructions: 98000000 cycles: 148970369 heartbeat IPC: 0.591546 cumulative IPC: 0.61698 (Simulation time: 0 hr 59 min 47 sec) 
Heartbeat CPU 0 instructions: 99000001 cycles: 150660547 heartbeat IPC: 0.591654 cumulative IPC: 0.616684 (Simulation time: 1 hr 0 min 10 sec) 
Heartbeat CPU 0 instructions: 100000000 cycles: 152358170 heartbeat IPC: 0.589058 cumulative IPC: 0.616363 (Simulation time: 1 hr 0 min 32 sec) 
Heartbeat CPU 0 instructions: 101000001 cycles: 154039789 heartbeat IPC: 0.594666 cumulative IPC: 0.616116 (Simulation time: 1 hr 0 min 52 sec) 
Heartbeat CPU 0 instructions: 102000002 cycles: 155726397 heartbeat IPC: 0.592907 cumulative IPC: 0.615854 (Simulation time: 1 hr 1 min 11 sec) 
Heartbeat CPU 0 instructions: 103000000 cycles: 157409717 heartbeat IPC: 0.594063 cumulative IPC: 0.615611 (Simulation time: 1 hr 1 min 29 sec) 
Heartbeat CPU 0 instructions: 104000000 cycles: 159103282 heartbeat IPC: 0.59047 cumulative IPC: 0.615332 (Simulation time: 1 hr 1 min 46 sec) 
Heartbeat CPU 0 instructions: 105000000 cycles: 160792406 heartbeat IPC: 0.592023 cumulative IPC: 0.615077 (Simulation time: 1 hr 2 min 4 sec) 
Heartbeat CPU 0 instructions: 106000002 cycles: 162474637 heartbeat IPC: 0.59445 cumulative IPC: 0.614855 (Simulation time: 1 hr 2 min 20 sec) 
Heartbeat CPU 0 instructions: 107000000 cycles: 164177425 heartbeat IPC: 0.587271 cumulative IPC: 0.614557 (Simulation time: 1 hr 2 min 35 sec) 
Heartbeat CPU 0 instructions: 108000000 cycles: 165861313 heartbeat IPC: 0.593864 cumulative IPC: 0.614339 (Simulation time: 1 hr 2 min 47 sec) 
Heartbeat CPU 0 instructions: 109000003 cycles: 167546602 heartbeat IPC: 0.593372 cumulative IPC: 0.61412 (Simulation time: 1 hr 2 min 59 sec) 
Heartbeat CPU 0 instructions: 110000001 cycles: 169245161 heartbeat IPC: 0.588733 cumulative IPC: 0.613855 (Simulation time: 1 hr 3 min 10 sec) 
Finished CPU 0 instructions: 100000003 cycles: 162904912 cummulative IPC: 0.613855 (Simulation time: 1 hr 3 min 10 sec) 

ChampSim completed all CPUs

Region of Interest Statistics

CPU 0 cummulative IPC: 0.613855 instructions: 100000003 cycles: 162904912
LLC TOTAL     ACCESS:    5145131  HIT:    1279837  MISS:    3865294
LLC LOAD      ACCESS:     520310  HIT:     129370  MISS:     390940
LLC RFO       ACCESS:         17  HIT:          0  MISS:         17
LLC PREFETCH  ACCESS:    3247495  HIT:     387586  MISS:    2859909
LLC WRITEBACK ACCESS:    1377309  HIT:     762881  MISS:     614428
Insertion Distribution: 
	LOAD 130359 0 146423 131235 
	RFO 0 0 17 0 
	PREF 0 8029 1657168 1533783 
	WRITEBACK 0 0 0 674553 
Total Prefetch Downgrades: 13033
