
*** ChampSim Multicore Out-of-Order Simulator ***

Warmup Instructions: 10000000
Simulation Instructions: 100000000
Configuration: 2
Number of CPUs: 1
LLC sets: 2048
LLC ways: 16
Off-chip DRAM Channels: 1 Width: 64-bit Data Rate: 1600 MT/s

CPU 0 runs /datasets/cs240c-wi22-a00-public/data/Assignment2-gz/leslie3d_1116B.trace.gz
CPU 0 L1D next line prefetcher
CPU 0 L2C IP-based stride prefetcher
Initialize SRRIP state
Heartbeat CPU 0 instructions: 1000003 cycles: 535311 heartbeat IPC: 1.86808 cumulative IPC: 1.86808 (Simulation time: 0 hr 0 min 34 sec) 
Heartbeat CPU 0 instructions: 2000003 cycles: 1071193 heartbeat IPC: 1.86608 cumulative IPC: 1.86708 (Simulation time: 0 hr 1 min 7 sec) 
Heartbeat CPU 0 instructions: 3000003 cycles: 1607888 heartbeat IPC: 1.86326 cumulative IPC: 1.8658 (Simulation time: 0 hr 1 min 40 sec) 
Heartbeat CPU 0 instructions: 4000000 cycles: 2143245 heartbeat IPC: 1.86791 cumulative IPC: 1.86633 (Simulation time: 0 hr 2 min 16 sec) 
Heartbeat CPU 0 instructions: 5000001 cycles: 2678356 heartbeat IPC: 1.86877 cumulative IPC: 1.86682 (Simulation time: 0 hr 2 min 50 sec) 
Heartbeat CPU 0 instructions: 6000001 cycles: 3213772 heartbeat IPC: 1.86771 cumulative IPC: 1.86697 (Simulation time: 0 hr 3 min 24 sec) 
Heartbeat CPU 0 instructions: 7000001 cycles: 3749769 heartbeat IPC: 1.86568 cumulative IPC: 1.86678 (Simulation time: 0 hr 4 min 2 sec) 
Heartbeat CPU 0 instructions: 8000000 cycles: 4285812 heartbeat IPC: 1.86552 cumulative IPC: 1.86662 (Simulation time: 0 hr 4 min 39 sec) 
Heartbeat CPU 0 instructions: 9000003 cycles: 4820901 heartbeat IPC: 1.86885 cumulative IPC: 1.86687 (Simulation time: 0 hr 5 min 17 sec) 
Heartbeat CPU 0 instructions: 10000002 cycles: 5355874 heartbeat IPC: 1.86925 cumulative IPC: 1.86711 (Simulation time: 0 hr 5 min 50 sec) 

Warmup complete CPU 0 instructions: 10000002 cycles: 5355874 (Simulation time: 0 hr 5 min 50 sec) 

Heartbeat CPU 0 instructions: 11000001 cycles: 6446362 heartbeat IPC: 0.91702 cumulative IPC: 0.91702 (Simulation time: 0 hr 6 min 29 sec) 
Heartbeat CPU 0 instructions: 12000000 cycles: 7508339 heartbeat IPC: 0.941639 cumulative IPC: 0.929166 (Simulation time: 0 hr 7 min 8 sec) 
Heartbeat CPU 0 instructions: 13000002 cycles: 8575061 heartbeat IPC: 0.937453 cumulative IPC: 0.931912 (Simulation time: 0 hr 7 min 45 sec) 
Heartbeat CPU 0 instructions: 14000003 cycles: 9642548 heartbeat IPC: 0.936781 cumulative IPC: 0.933125 (Simulation time: 0 hr 8 min 22 sec) 
Heartbeat CPU 0 instructions: 15000000 cycles: 10718987 heartbeat IPC: 0.928986 cumulative IPC: 0.932294 (Simulation time: 0 hr 8 min 57 sec) 
Heartbeat CPU 0 instructions: 16000000 cycles: 11793509 heartbeat IPC: 0.930646 cumulative IPC: 0.932019 (Simulation time: 0 hr 9 min 34 sec) 
Heartbeat CPU 0 instructions: 17000003 cycles: 12851995 heartbeat IPC: 0.944748 cumulative IPC: 0.933816 (Simulation time: 0 hr 10 min 10 sec) 
Heartbeat CPU 0 instructions: 18000001 cycles: 13929968 heartbeat IPC: 0.927665 cumulative IPC: 0.933043 (Simulation time: 0 hr 10 min 46 sec) 
Heartbeat CPU 0 instructions: 19000001 cycles: 15008664 heartbeat IPC: 0.927045 cumulative IPC: 0.932373 (Simulation time: 0 hr 11 min 21 sec) 
Heartbeat CPU 0 instructions: 20000000 cycles: 16073713 heartbeat IPC: 0.938923 cumulative IPC: 0.933024 (Simulation time: 0 hr 11 min 55 sec) 
Heartbeat CPU 0 instructions: 21000000 cycles: 17155826 heartbeat IPC: 0.924118 cumulative IPC: 0.932207 (Simulation time: 0 hr 12 min 31 sec) 
Heartbeat CPU 0 instructions: 22000000 cycles: 18223753 heartbeat IPC: 0.936394 cumulative IPC: 0.932554 (Simulation time: 0 hr 13 min 7 sec) 
Heartbeat CPU 0 instructions: 23000003 cycles: 19304692 heartbeat IPC: 0.925124 cumulative IPC: 0.931979 (Simulation time: 0 hr 13 min 45 sec) 
Heartbeat CPU 0 instructions: 24000000 cycles: 20371890 heartbeat IPC: 0.93703 cumulative IPC: 0.932338 (Simulation time: 0 hr 14 min 24 sec) 
Heartbeat CPU 0 instructions: 25000001 cycles: 21441050 heartbeat IPC: 0.935315 cumulative IPC: 0.932536 (Simulation time: 0 hr 15 min 3 sec) 
Heartbeat CPU 0 instructions: 26000002 cycles: 22529176 heartbeat IPC: 0.919012 cumulative IPC: 0.931679 (Simulation time: 0 hr 15 min 41 sec) 
Heartbeat CPU 0 instructions: 27000001 cycles: 23605685 heartbeat IPC: 0.928928 cumulative IPC: 0.931516 (Simulation time: 0 hr 16 min 16 sec) 
Heartbeat CPU 0 instructions: 28000000 cycles: 24668052 heartbeat IPC: 0.941293 cumulative IPC: 0.932054 (Simulation time: 0 hr 16 min 52 sec) 
Heartbeat CPU 0 instructions: 29000003 cycles: 25740564 heartbeat IPC: 0.932393 cumulative IPC: 0.932072 (Simulation time: 0 hr 17 min 29 sec) 
Heartbeat CPU 0 instructions: 30000002 cycles: 26839818 heartbeat IPC: 0.909707 cumulative IPC: 0.930928 (Simulation time: 0 hr 18 min 8 sec) 
Heartbeat CPU 0 instructions: 31000001 cycles: 27918308 heartbeat IPC: 0.927221 cumulative IPC: 0.930751 (Simulation time: 0 hr 18 min 45 sec) 
Heartbeat CPU 0 instructions: 32000000 cycles: 29000117 heartbeat IPC: 0.924377 cumulative IPC: 0.930459 (Simulation time: 0 hr 19 min 19 sec) 
Heartbeat CPU 0 instructions: 33000002 cycles: 30075737 heartbeat IPC: 0.929698 cumulative IPC: 0.930426 (Simulation time: 0 hr 19 min 53 sec) 
Heartbeat CPU 0 instructions: 34000002 cycles: 31164563 heartbeat IPC: 0.91842 cumulative IPC: 0.929919 (Simulation time: 0 hr 20 min 27 sec) 
Heartbeat CPU 0 instructions: 35000000 cycles: 32252002 heartbeat IPC: 0.91959 cumulative IPC: 0.929502 (Simulation time: 0 hr 21 min 2 sec) 
Heartbeat CPU 0 instructions: 36000000 cycles: 33331335 heartbeat IPC: 0.926498 cumulative IPC: 0.929386 (Simulation time: 0 hr 21 min 35 sec) 
Heartbeat CPU 0 instructions: 37000003 cycles: 34641323 heartbeat IPC: 0.763368 cumulative IPC: 0.92196 (Simulation time: 0 hr 22 min 14 sec) 
Heartbeat CPU 0 instructions: 38000003 cycles: 36235851 heartbeat IPC: 0.627145 cumulative IPC: 0.906736 (Simulation time: 0 hr 22 min 54 sec) 
Heartbeat CPU 0 instructions: 39000003 cycles: 37855953 heartbeat IPC: 0.617245 cumulative IPC: 0.892306 (Simulation time: 0 hr 23 min 31 sec) 
Heartbeat CPU 0 instructions: 40000000 cycles: 39465316 heartbeat IPC: 0.621362 cumulative IPC: 0.879522 (Simulation time: 0 hr 24 min 7 sec) 
Heartbeat CPU 0 instructions: 41000002 cycles: 41054353 heartbeat IPC: 0.629313 cumulative IPC: 0.868384 (Simulation time: 0 hr 24 min 45 sec) 
Heartbeat CPU 0 instructions: 42000001 cycles: 42647445 heartbeat IPC: 0.62771 cumulative IPC: 0.858103 (Simulation time: 0 hr 25 min 23 sec) 
Heartbeat CPU 0 instructions: 43000003 cycles: 44236320 heartbeat IPC: 0.629377 cumulative IPC: 0.848756 (Simulation time: 0 hr 25 min 59 sec) 
Heartbeat CPU 0 instructions: 44000000 cycles: 45823167 heartbeat IPC: 0.630179 cumulative IPC: 0.840185 (Simulation time: 0 hr 26 min 34 sec) 
Heartbeat CPU 0 instructions: 45000002 cycles: 47410379 heartbeat IPC: 0.630037 cumulative IPC: 0.832253 (Simulation time: 0 hr 27 min 10 sec) 
Heartbeat CPU 0 instructions: 46000002 cycles: 49008906 heartbeat IPC: 0.625576 cumulative IPC: 0.824685 (Simulation time: 0 hr 27 min 46 sec) 
Heartbeat CPU 0 instructions: 47000001 cycles: 50613804 heartbeat IPC: 0.623092 cumulative IPC: 0.817536 (Simulation time: 0 hr 28 min 21 sec) 
Heartbeat CPU 0 instructions: 48000000 cycles: 52197563 heartbeat IPC: 0.631409 cumulative IPC: 0.811243 (Simulation time: 0 hr 28 min 57 sec) 
Heartbeat CPU 0 instructions: 49000000 cycles: 54400789 heartbeat IPC: 0.45388 cumulative IPC: 0.795189 (Simulation time: 0 hr 29 min 37 sec) 
Heartbeat CPU 0 instructions: 50000000 cycles: 56830805 heartbeat IPC: 0.41152 cumulative IPC: 0.777077 (Simulation time: 0 hr 30 min 20 sec) 
Heartbeat CPU 0 instructions: 51000003 cycles: 59252110 heartbeat IPC: 0.413002 cumulative IPC: 0.760721 (Simulation time: 0 hr 31 min 2 sec) 
Heartbeat CPU 0 instructions: 52000000 cycles: 61712397 heartbeat IPC: 0.406455 cumulative IPC: 0.745255 (Simulation time: 0 hr 31 min 45 sec) 
Heartbeat CPU 0 instructions: 53000003 cycles: 64160264 heartbeat IPC: 0.40852 cumulative IPC: 0.731238 (Simulation time: 0 hr 32 min 29 sec) 
Heartbeat CPU 0 instructions: 54000000 cycles: 66589655 heartbeat IPC: 0.411625 cumulative IPC: 0.718558 (Simulation time: 0 hr 33 min 21 sec) 
Heartbeat CPU 0 instructions: 55000002 cycles: 68936186 heartbeat IPC: 0.426162 cumulative IPC: 0.707766 (Simulation time: 0 hr 34 min 9 sec) 
Heartbeat CPU 0 instructions: 56000000 cycles: 71314131 heartbeat IPC: 0.42053 cumulative IPC: 0.697411 (Simulation time: 0 hr 34 min 58 sec) 
Heartbeat CPU 0 instructions: 57000001 cycles: 73663522 heartbeat IPC: 0.425643 cumulative IPC: 0.688064 (Simulation time: 0 hr 35 min 47 sec) 
Heartbeat CPU 0 instructions: 58000001 cycles: 75928161 heartbeat IPC: 0.441571 cumulative IPC: 0.680154 (Simulation time: 0 hr 36 min 34 sec) 
Heartbeat CPU 0 instructions: 59000000 cycles: 77231728 heartbeat IPC: 0.767125 cumulative IPC: 0.681731 (Simulation time: 0 hr 37 min 13 sec) 
Heartbeat CPU 0 instructions: 60000000 cycles: 78530935 heartbeat IPC: 0.7697 cumulative IPC: 0.683293 (Simulation time: 0 hr 37 min 54 sec) 
Heartbeat CPU 0 instructions: 61000000 cycles: 79898328 heartbeat IPC: 0.731319 cumulative IPC: 0.684174 (Simulation time: 0 hr 38 min 32 sec) 
Heartbeat CPU 0 instructions: 62000002 cycles: 81222263 heartbeat IPC: 0.755326 cumulative IPC: 0.685416 (Simulation time: 0 hr 39 min 10 sec) 
Heartbeat CPU 0 instructions: 63000003 cycles: 82489451 heartbeat IPC: 0.78915 cumulative IPC: 0.68712 (Simulation time: 0 hr 39 min 48 sec) 
Heartbeat CPU 0 instructions: 64000000 cycles: 83784662 heartbeat IPC: 0.772073 cumulative IPC: 0.688523 (Simulation time: 0 hr 40 min 29 sec) 
Heartbeat CPU 0 instructions: 65000001 cycles: 85291481 heartbeat IPC: 0.66365 cumulative IPC: 0.688054 (Simulation time: 0 hr 41 min 7 sec) 
Heartbeat CPU 0 instructions: 66000000 cycles: 86517051 heartbeat IPC: 0.815946 cumulative IPC: 0.689985 (Simulation time: 0 hr 41 min 46 sec) 
Heartbeat CPU 0 instructions: 67000001 cycles: 87772492 heartbeat IPC: 0.796534 cumulative IPC: 0.691608 (Simulation time: 0 hr 42 min 27 sec) 
Heartbeat CPU 0 instructions: 68000000 cycles: 89178651 heartbeat IPC: 0.711156 cumulative IPC: 0.691936 (Simulation time: 0 hr 43 min 4 sec) 
Heartbeat CPU 0 instructions: 69000002 cycles: 90458953 heartbeat IPC: 0.781067 cumulative IPC: 0.693277 (Simulation time: 0 hr 43 min 42 sec) 
Heartbeat CPU 0 instructions: 70000000 cycles: 91686360 heartbeat IPC: 0.814724 cumulative IPC: 0.695004 (Simulation time: 0 hr 44 min 22 sec) 
Heartbeat CPU 0 instructions: 71000002 cycles: 92943970 heartbeat IPC: 0.795161 cumulative IPC: 0.696442 (Simulation time: 0 hr 45 min 0 sec) 
Heartbeat CPU 0 instructions: 72000000 cycles: 94354535 heartbeat IPC: 0.708934 cumulative IPC: 0.69664 (Simulation time: 0 hr 45 min 35 sec) 
Heartbeat CPU 0 instructions: 73000000 cycles: 95597339 heartbeat IPC: 0.804632 cumulative IPC: 0.698127 (Simulation time: 0 hr 46 min 11 sec) 
Heartbeat CPU 0 instructions: 74000000 cycles: 96833970 heartbeat IPC: 0.808649 cumulative IPC: 0.699621 (Simulation time: 0 hr 46 min 48 sec) 
Heartbeat CPU 0 instructions: 75000002 cycles: 98252017 heartbeat IPC: 0.705197 cumulative IPC: 0.699706 (Simulation time: 0 hr 47 min 24 sec) 
Heartbeat CPU 0 instructions: 76000000 cycles: 99477537 heartbeat IPC: 0.815979 cumulative IPC: 0.70122 (Simulation time: 0 hr 47 min 59 sec) 
Heartbeat CPU 0 instructions: 77000001 cycles: 100702933 heartbeat IPC: 0.816064 cumulative IPC: 0.702696 (Simulation time: 0 hr 48 min 34 sec) 
Heartbeat CPU 0 instructions: 78000000 cycles: 102010473 heartbeat IPC: 0.764794 cumulative IPC: 0.703536 (Simulation time: 0 hr 49 min 10 sec) 
Heartbeat CPU 0 instructions: 79000001 cycles: 103325014 heartbeat IPC: 0.760723 cumulative IPC: 0.704303 (Simulation time: 0 hr 49 min 45 sec) 
Heartbeat CPU 0 instructions: 80000000 cycles: 104557954 heartbeat IPC: 0.811069 cumulative IPC: 0.70563 (Simulation time: 0 hr 50 min 22 sec) 
Heartbeat CPU 0 instructions: 81000003 cycles: 105789214 heartbeat IPC: 0.812179 cumulative IPC: 0.706937 (Simulation time: 0 hr 50 min 56 sec) 
Heartbeat CPU 0 instructions: 82000000 cycles: 107180666 heartbeat IPC: 0.718672 cumulative IPC: 0.707097 (Simulation time: 0 hr 51 min 28 sec) 
Heartbeat CPU 0 instructions: 83000001 cycles: 108401678 heartbeat IPC: 0.818994 cumulative IPC: 0.708423 (Simulation time: 0 hr 52 min 1 sec) 
Heartbeat CPU 0 instructions: 84000000 cycles: 109640099 heartbeat IPC: 0.807479 cumulative IPC: 0.709599 (Simulation time: 0 hr 52 min 31 sec) 
Heartbeat CPU 0 instructions: 85000003 cycles: 111023868 heartbeat IPC: 0.722666 cumulative IPC: 0.70977 (Simulation time: 0 hr 53 min 1 sec) 
Heartbeat CPU 0 instructions: 86000002 cycles: 112254140 heartbeat IPC: 0.812828 cumulative IPC: 0.710956 (Simulation time: 0 hr 53 min 30 sec) 
Heartbeat CPU 0 instructions: 87000001 cycles: 113478573 heartbeat IPC: 0.816704 cumulative IPC: 0.712154 (Simulation time: 0 hr 54 min 0 sec) 
Heartbeat CPU 0 instructions: 88000000 cycles: 114723167 heartbeat IPC: 0.803474 cumulative IPC: 0.713193 (Simulation time: 0 hr 54 min 28 sec) 
Heartbeat CPU 0 instructions: 89000001 cycles: 116103151 heartbeat IPC: 0.724647 cumulative IPC: 0.713336 (Simulation time: 0 hr 54 min 56 sec) 
Heartbeat CPU 0 instructions: 90000003 cycles: 117325253 heartbeat IPC: 0.818264 cumulative IPC: 0.714481 (Simulation time: 0 hr 55 min 22 sec) 
Heartbeat CPU 0 instructions: 91000000 cycles: 118567344 heartbeat IPC: 0.805092 cumulative IPC: 0.715475 (Simulation time: 0 hr 55 min 46 sec) 
Heartbeat CPU 0 instructions: 92000000 cycles: 119966099 heartbeat IPC: 0.714921 cumulative IPC: 0.715468 (Simulation time: 0 hr 56 min 8 sec) 
Heartbeat CPU 0 instructions: 93000002 cycles: 121186941 heartbeat IPC: 0.819108 cumulative IPC: 0.716561 (Simulation time: 0 hr 56 min 32 sec) 
Heartbeat CPU 0 instructions: 94000000 cycles: 122425132 heartbeat IPC: 0.807628 cumulative IPC: 0.717524 (Simulation time: 0 hr 56 min 57 sec) 
Heartbeat CPU 0 instructions: 95000003 cycles: 123756045 heartbeat IPC: 0.751366 cumulative IPC: 0.717904 (Simulation time: 0 hr 57 min 20 sec) 
Heartbeat CPU 0 instructions: 96000000 cycles: 125065371 heartbeat IPC: 0.763749 cumulative IPC: 0.718406 (Simulation time: 0 hr 57 min 42 sec) 
Heartbeat CPU 0 instructions: 97000000 cycles: 126277689 heartbeat IPC: 0.824866 cumulative IPC: 0.719473 (Simulation time: 0 hr 58 min 6 sec) 
Heartbeat CPU 0 instructions: 98000000 cycles: 127519549 heartbeat IPC: 0.805244 cumulative IPC: 0.720345 (Simulation time: 0 hr 58 min 29 sec) 
Heartbeat CPU 0 instructions: 99000003 cycles: 128919777 heartbeat IPC: 0.714172 cumulative IPC: 0.720275 (Simulation time: 0 hr 58 min 50 sec) 
Heartbeat CPU 0 instructions: 100000000 cycles: 130160544 heartbeat IPC: 0.805951 cumulative IPC: 0.721127 (Simulation time: 0 hr 59 min 12 sec) 
Heartbeat CPU 0 instructions: 101000001 cycles: 131404432 heartbeat IPC: 0.803932 cumulative IPC: 0.721944 (Simulation time: 0 hr 59 min 34 sec) 
Heartbeat CPU 0 instructions: 102000003 cycles: 132804815 heartbeat IPC: 0.714092 cumulative IPC: 0.721858 (Simulation time: 0 hr 59 min 54 sec) 
Heartbeat CPU 0 instructions: 103000002 cycles: 134031178 heartbeat IPC: 0.815418 cumulative IPC: 0.722749 (Simulation time: 1 hr 0 min 15 sec) 
Heartbeat CPU 0 instructions: 104000000 cycles: 135279687 heartbeat IPC: 0.800954 cumulative IPC: 0.723501 (Simulation time: 1 hr 0 min 34 sec) 
Heartbeat CPU 0 instructions: 105000000 cycles: 136543625 heartbeat IPC: 0.791178 cumulative IPC: 0.724153 (Simulation time: 1 hr 0 min 50 sec) 
Heartbeat CPU 0 instructions: 106000003 cycles: 138195018 heartbeat IPC: 0.605551 cumulative IPC: 0.722679 (Simulation time: 1 hr 1 min 5 sec) 
Heartbeat CPU 0 instructions: 107000002 cycles: 139942197 heartbeat IPC: 0.572351 cumulative IPC: 0.720727 (Simulation time: 1 hr 1 min 21 sec) 
Heartbeat CPU 0 instructions: 108000000 cycles: 141814847 heartbeat IPC: 0.534002 cumulative IPC: 0.718165 (Simulation time: 1 hr 1 min 36 sec) 
Heartbeat CPU 0 instructions: 109000003 cycles: 143511455 heartbeat IPC: 0.589413 cumulative IPC: 0.716583 (Simulation time: 1 hr 1 min 50 sec) 
Heartbeat CPU 0 instructions: 110000003 cycles: 145298120 heartbeat IPC: 0.559702 cumulative IPC: 0.714581 (Simulation time: 1 hr 2 min 4 sec) 
Finished CPU 0 instructions: 100000001 cycles: 139942246 cummulative IPC: 0.714581 (Simulation time: 1 hr 2 min 4 sec) 

ChampSim completed all CPUs

Region of Interest Statistics

CPU 0 cummulative IPC: 0.714581 instructions: 100000001 cycles: 139942246
LLC TOTAL     ACCESS:    3583194  HIT:     931234  MISS:    2651960
LLC LOAD      ACCESS:     298365  HIT:      55721  MISS:     242644
LLC RFO       ACCESS:     622469  HIT:     114635  MISS:     507834
LLC PREFETCH  ACCESS:    1899118  HIT:     255456  MISS:    1643662
LLC WRITEBACK ACCESS:     763242  HIT:     505422  MISS:     257820
Insertion Distribution: 
	LOAD 13243 0 141474 90672 
	RFO 1284 0 297725 235220 
	PREF 0 25176 963108 779258 
	WRITEBACK 0 0 0 267259 
Total Prefetch Downgrades: 29435
