
*** ChampSim Multicore Out-of-Order Simulator ***

Warmup Instructions: 10000000
Simulation Instructions: 100000000
Configuration: 2
Number of CPUs: 1
LLC sets: 2048
LLC ways: 16
Off-chip DRAM Channels: 1 Width: 64-bit Data Rate: 1600 MT/s

CPU 0 runs /datasets/cs240c-wi22-a00-public/data/Assignment2-gz/lbm_564B.trace.gz
CPU 0 L1D next line prefetcher
CPU 0 L2C IP-based stride prefetcher
Initialize SRRIP state
Heartbeat CPU 0 instructions: 1000000 cycles: 390168 heartbeat IPC: 2.563 cumulative IPC: 2.563 (Simulation time: 0 hr 0 min 29 sec) 
Heartbeat CPU 0 instructions: 2000003 cycles: 785204 heartbeat IPC: 2.53142 cumulative IPC: 2.54711 (Simulation time: 0 hr 0 min 57 sec) 
Heartbeat CPU 0 instructions: 3000002 cycles: 1175398 heartbeat IPC: 2.56283 cumulative IPC: 2.55233 (Simulation time: 0 hr 1 min 24 sec) 
Heartbeat CPU 0 instructions: 4000000 cycles: 1565585 heartbeat IPC: 2.56287 cumulative IPC: 2.55496 (Simulation time: 0 hr 1 min 50 sec) 
Heartbeat CPU 0 instructions: 5000000 cycles: 1960703 heartbeat IPC: 2.53089 cumulative IPC: 2.55011 (Simulation time: 0 hr 2 min 19 sec) 
Heartbeat CPU 0 instructions: 6000002 cycles: 2350859 heartbeat IPC: 2.56308 cumulative IPC: 2.55226 (Simulation time: 0 hr 2 min 48 sec) 
Heartbeat CPU 0 instructions: 7000001 cycles: 2741121 heartbeat IPC: 2.56238 cumulative IPC: 2.5537 (Simulation time: 0 hr 3 min 15 sec) 
Heartbeat CPU 0 instructions: 8000000 cycles: 3136132 heartbeat IPC: 2.53157 cumulative IPC: 2.55091 (Simulation time: 0 hr 3 min 46 sec) 
Heartbeat CPU 0 instructions: 9000000 cycles: 3526391 heartbeat IPC: 2.5624 cumulative IPC: 2.55218 (Simulation time: 0 hr 4 min 17 sec) 
Heartbeat CPU 0 instructions: 10000002 cycles: 3916543 heartbeat IPC: 2.56311 cumulative IPC: 2.55327 (Simulation time: 0 hr 4 min 44 sec) 

Warmup complete CPU 0 instructions: 10000002 cycles: 3916543 (Simulation time: 0 hr 4 min 44 sec) 

Heartbeat CPU 0 instructions: 11000000 cycles: 5490174 heartbeat IPC: 0.635472 cumulative IPC: 0.635472 (Simulation time: 0 hr 5 min 17 sec) 
Heartbeat CPU 0 instructions: 12000000 cycles: 7125036 heartbeat IPC: 0.611672 cumulative IPC: 0.623345 (Simulation time: 0 hr 5 min 53 sec) 
Heartbeat CPU 0 instructions: 13000001 cycles: 8674032 heartbeat IPC: 0.64558 cumulative IPC: 0.630585 (Simulation time: 0 hr 6 min 28 sec) 
Heartbeat CPU 0 instructions: 14000001 cycles: 10246152 heartbeat IPC: 0.636084 cumulative IPC: 0.63195 (Simulation time: 0 hr 7 min 2 sec) 
Heartbeat CPU 0 instructions: 15000000 cycles: 11893555 heartbeat IPC: 0.607015 cumulative IPC: 0.626801 (Simulation time: 0 hr 7 min 39 sec) 
Heartbeat CPU 0 instructions: 16000000 cycles: 13445174 heartbeat IPC: 0.644488 cumulative IPC: 0.629681 (Simulation time: 0 hr 8 min 15 sec) 
Heartbeat CPU 0 instructions: 17000000 cycles: 15002548 heartbeat IPC: 0.642107 cumulative IPC: 0.631427 (Simulation time: 0 hr 8 min 51 sec) 
Heartbeat CPU 0 instructions: 18000000 cycles: 16613058 heartbeat IPC: 0.620921 cumulative IPC: 0.630094 (Simulation time: 0 hr 9 min 28 sec) 
Heartbeat CPU 0 instructions: 19000003 cycles: 18140475 heartbeat IPC: 0.654702 cumulative IPC: 0.632737 (Simulation time: 0 hr 10 min 2 sec) 
Heartbeat CPU 0 instructions: 20000000 cycles: 19709139 heartbeat IPC: 0.637483 cumulative IPC: 0.633208 (Simulation time: 0 hr 10 min 34 sec) 
Heartbeat CPU 0 instructions: 21000003 cycles: 21276363 heartbeat IPC: 0.638073 cumulative IPC: 0.633647 (Simulation time: 0 hr 11 min 9 sec) 
Heartbeat CPU 0 instructions: 22000003 cycles: 23513612 heartbeat IPC: 0.446978 cumulative IPC: 0.612337 (Simulation time: 0 hr 11 min 50 sec) 
Heartbeat CPU 0 instructions: 23000001 cycles: 25997530 heartbeat IPC: 0.402589 cumulative IPC: 0.588742 (Simulation time: 0 hr 12 min 32 sec) 
Heartbeat CPU 0 instructions: 24000000 cycles: 33333784 heartbeat IPC: 0.136309 cumulative IPC: 0.475911 (Simulation time: 0 hr 13 min 57 sec) 
Heartbeat CPU 0 instructions: 25000003 cycles: 36326506 heartbeat IPC: 0.334145 cumulative IPC: 0.462821 (Simulation time: 0 hr 14 min 47 sec) 
Heartbeat CPU 0 instructions: 26000002 cycles: 38796158 heartbeat IPC: 0.404915 cumulative IPC: 0.458721 (Simulation time: 0 hr 15 min 32 sec) 
Heartbeat CPU 0 instructions: 27000001 cycles: 40293987 heartbeat IPC: 0.667632 cumulative IPC: 0.467323 (Simulation time: 0 hr 16 min 6 sec) 
Heartbeat CPU 0 instructions: 28000000 cycles: 41744916 heartbeat IPC: 0.689213 cumulative IPC: 0.475833 (Simulation time: 0 hr 16 min 39 sec) 
Heartbeat CPU 0 instructions: 29000003 cycles: 43292949 heartbeat IPC: 0.645983 cumulative IPC: 0.482522 (Simulation time: 0 hr 17 min 14 sec) 
Heartbeat CPU 0 instructions: 30000000 cycles: 44897886 heartbeat IPC: 0.623076 cumulative IPC: 0.488027 (Simulation time: 0 hr 17 min 52 sec) 
Heartbeat CPU 0 instructions: 31000000 cycles: 46416110 heartbeat IPC: 0.658664 cumulative IPC: 0.494123 (Simulation time: 0 hr 18 min 28 sec) 
Heartbeat CPU 0 instructions: 32000000 cycles: 47947563 heartbeat IPC: 0.652975 cumulative IPC: 0.499648 (Simulation time: 0 hr 19 min 3 sec) 
Heartbeat CPU 0 instructions: 33000001 cycles: 49574615 heartbeat IPC: 0.614609 cumulative IPC: 0.503744 (Simulation time: 0 hr 19 min 39 sec) 
Heartbeat CPU 0 instructions: 34000001 cycles: 51153542 heartbeat IPC: 0.633341 cumulative IPC: 0.508076 (Simulation time: 0 hr 20 min 18 sec) 
Heartbeat CPU 0 instructions: 35000002 cycles: 52707227 heartbeat IPC: 0.643632 cumulative IPC: 0.512393 (Simulation time: 0 hr 20 min 51 sec) 
Heartbeat CPU 0 instructions: 36000000 cycles: 54258434 heartbeat IPC: 0.644658 cumulative IPC: 0.516468 (Simulation time: 0 hr 21 min 24 sec) 
Heartbeat CPU 0 instructions: 37000000 cycles: 55907571 heartbeat IPC: 0.606378 cumulative IPC: 0.51932 (Simulation time: 0 hr 21 min 57 sec) 
Heartbeat CPU 0 instructions: 38000003 cycles: 57485524 heartbeat IPC: 0.633734 cumulative IPC: 0.522691 (Simulation time: 0 hr 22 min 30 sec) 
Heartbeat CPU 0 instructions: 39000002 cycles: 59062276 heartbeat IPC: 0.634215 cumulative IPC: 0.525879 (Simulation time: 0 hr 23 min 4 sec) 
Heartbeat CPU 0 instructions: 40000000 cycles: 60699505 heartbeat IPC: 0.610787 cumulative IPC: 0.528327 (Simulation time: 0 hr 23 min 39 sec) 
Heartbeat CPU 0 instructions: 41000000 cycles: 62257742 heartbeat IPC: 0.641751 cumulative IPC: 0.531357 (Simulation time: 0 hr 24 min 13 sec) 
Heartbeat CPU 0 instructions: 42000002 cycles: 63793099 heartbeat IPC: 0.651316 cumulative IPC: 0.534433 (Simulation time: 0 hr 24 min 47 sec) 
Heartbeat CPU 0 instructions: 43000001 cycles: 65418071 heartbeat IPC: 0.615395 cumulative IPC: 0.536572 (Simulation time: 0 hr 25 min 24 sec) 
Heartbeat CPU 0 instructions: 44000000 cycles: 66978094 heartbeat IPC: 0.641016 cumulative IPC: 0.539156 (Simulation time: 0 hr 26 min 1 sec) 
Heartbeat CPU 0 instructions: 45000001 cycles: 68541026 heartbeat IPC: 0.639824 cumulative IPC: 0.54159 (Simulation time: 0 hr 26 min 37 sec) 
Heartbeat CPU 0 instructions: 46000002 cycles: 70113111 heartbeat IPC: 0.636099 cumulative IPC: 0.543835 (Simulation time: 0 hr 27 min 15 sec) 
Heartbeat CPU 0 instructions: 47000001 cycles: 71738380 heartbeat IPC: 0.615282 cumulative IPC: 0.545547 (Simulation time: 0 hr 27 min 49 sec) 
Heartbeat CPU 0 instructions: 48000000 cycles: 73298403 heartbeat IPC: 0.641016 cumulative IPC: 0.547694 (Simulation time: 0 hr 28 min 22 sec) 
Heartbeat CPU 0 instructions: 49000001 cycles: 74854391 heartbeat IPC: 0.642679 cumulative IPC: 0.549777 (Simulation time: 0 hr 28 min 56 sec) 
Heartbeat CPU 0 instructions: 50000001 cycles: 76489346 heartbeat IPC: 0.611638 cumulative IPC: 0.551171 (Simulation time: 0 hr 29 min 31 sec) 
Heartbeat CPU 0 instructions: 51000002 cycles: 78045794 heartbeat IPC: 0.642489 cumulative IPC: 0.553088 (Simulation time: 0 hr 30 min 6 sec) 
Heartbeat CPU 0 instructions: 52000000 cycles: 79616838 heartbeat IPC: 0.636518 cumulative IPC: 0.554819 (Simulation time: 0 hr 30 min 39 sec) 
Heartbeat CPU 0 instructions: 53000001 cycles: 81198154 heartbeat IPC: 0.632385 cumulative IPC: 0.556407 (Simulation time: 0 hr 31 min 12 sec) 
Heartbeat CPU 0 instructions: 54000001 cycles: 82817716 heartbeat IPC: 0.617451 cumulative IPC: 0.55766 (Simulation time: 0 hr 31 min 44 sec) 
Heartbeat CPU 0 instructions: 55000002 cycles: 84380291 heartbeat IPC: 0.63997 cumulative IPC: 0.559258 (Simulation time: 0 hr 32 min 16 sec) 
Heartbeat CPU 0 instructions: 56000000 cycles: 85963186 heartbeat IPC: 0.631753 cumulative IPC: 0.560657 (Simulation time: 0 hr 32 min 48 sec) 
Heartbeat CPU 0 instructions: 57000001 cycles: 87570043 heartbeat IPC: 0.622334 cumulative IPC: 0.561841 (Simulation time: 0 hr 33 min 21 sec) 
Heartbeat CPU 0 instructions: 58000002 cycles: 89181852 heartbeat IPC: 0.620422 cumulative IPC: 0.562949 (Simulation time: 0 hr 33 min 54 sec) 
Heartbeat CPU 0 instructions: 59000001 cycles: 90747853 heartbeat IPC: 0.638569 cumulative IPC: 0.564313 (Simulation time: 0 hr 34 min 26 sec) 
Heartbeat CPU 0 instructions: 60000000 cycles: 92354816 heartbeat IPC: 0.622291 cumulative IPC: 0.565366 (Simulation time: 0 hr 34 min 59 sec) 
Heartbeat CPU 0 instructions: 61000003 cycles: 94013656 heartbeat IPC: 0.602833 cumulative IPC: 0.566056 (Simulation time: 0 hr 35 min 33 sec) 
Heartbeat CPU 0 instructions: 62000003 cycles: 95588667 heartbeat IPC: 0.634916 cumulative IPC: 0.567239 (Simulation time: 0 hr 36 min 6 sec) 
Heartbeat CPU 0 instructions: 63000000 cycles: 97217773 heartbeat IPC: 0.613832 cumulative IPC: 0.568053 (Simulation time: 0 hr 36 min 40 sec) 
Heartbeat CPU 0 instructions: 64000000 cycles: 98867054 heartbeat IPC: 0.606325 cumulative IPC: 0.568717 (Simulation time: 0 hr 37 min 15 sec) 
Heartbeat CPU 0 instructions: 65000003 cycles: 100480270 heartbeat IPC: 0.619882 cumulative IPC: 0.569572 (Simulation time: 0 hr 37 min 55 sec) 
Heartbeat CPU 0 instructions: 66000001 cycles: 102036955 heartbeat IPC: 0.642389 cumulative IPC: 0.570727 (Simulation time: 0 hr 38 min 28 sec) 
Heartbeat CPU 0 instructions: 67000001 cycles: 103707853 heartbeat IPC: 0.598481 cumulative IPC: 0.571192 (Simulation time: 0 hr 39 min 4 sec) 
Heartbeat CPU 0 instructions: 68000000 cycles: 105396235 heartbeat IPC: 0.592282 cumulative IPC: 0.571543 (Simulation time: 0 hr 39 min 36 sec) 
Heartbeat CPU 0 instructions: 69000003 cycles: 106954616 heartbeat IPC: 0.641694 cumulative IPC: 0.572604 (Simulation time: 0 hr 40 min 9 sec) 
Heartbeat CPU 0 instructions: 70000003 cycles: 108587527 heartbeat IPC: 0.612403 cumulative IPC: 0.573225 (Simulation time: 0 hr 40 min 41 sec) 
Heartbeat CPU 0 instructions: 71000000 cycles: 110334792 heartbeat IPC: 0.572321 cumulative IPC: 0.57321 (Simulation time: 0 hr 41 min 17 sec) 
Heartbeat CPU 0 instructions: 72000000 cycles: 111901392 heartbeat IPC: 0.638325 cumulative IPC: 0.574155 (Simulation time: 0 hr 41 min 50 sec) 
Heartbeat CPU 0 instructions: 73000003 cycles: 113505804 heartbeat IPC: 0.623283 cumulative IPC: 0.574874 (Simulation time: 0 hr 42 min 23 sec) 
Heartbeat CPU 0 instructions: 74000002 cycles: 115284254 heartbeat IPC: 0.562287 cumulative IPC: 0.574673 (Simulation time: 0 hr 42 min 56 sec) 
Heartbeat CPU 0 instructions: 75000002 cycles: 116855122 heartbeat IPC: 0.636591 cumulative IPC: 0.575534 (Simulation time: 0 hr 43 min 29 sec) 
Heartbeat CPU 0 instructions: 76000000 cycles: 118489675 heartbeat IPC: 0.611787 cumulative IPC: 0.576051 (Simulation time: 0 hr 44 min 2 sec) 
Heartbeat CPU 0 instructions: 77000001 cycles: 120290262 heartbeat IPC: 0.555375 cumulative IPC: 0.575731 (Simulation time: 0 hr 44 min 36 sec) 
Heartbeat CPU 0 instructions: 78000002 cycles: 121870709 heartbeat IPC: 0.632733 cumulative IPC: 0.576495 (Simulation time: 0 hr 45 min 7 sec) 
Heartbeat CPU 0 instructions: 79000000 cycles: 123491228 heartbeat IPC: 0.617085 cumulative IPC: 0.577045 (Simulation time: 0 hr 45 min 39 sec) 
Heartbeat CPU 0 instructions: 80000000 cycles: 125301184 heartbeat IPC: 0.5525 cumulative IPC: 0.576679 (Simulation time: 0 hr 46 min 12 sec) 
Heartbeat CPU 0 instructions: 81000003 cycles: 126896784 heartbeat IPC: 0.626725 cumulative IPC: 0.577329 (Simulation time: 0 hr 46 min 43 sec) 
Heartbeat CPU 0 instructions: 82000001 cycles: 128542827 heartbeat IPC: 0.607516 cumulative IPC: 0.577727 (Simulation time: 0 hr 47 min 14 sec) 
Heartbeat CPU 0 instructions: 83000001 cycles: 130328615 heartbeat IPC: 0.559977 cumulative IPC: 0.577477 (Simulation time: 0 hr 47 min 45 sec) 
Heartbeat CPU 0 instructions: 84000000 cycles: 131983777 heartbeat IPC: 0.60417 cumulative IPC: 0.577821 (Simulation time: 0 hr 48 min 15 sec) 
Heartbeat CPU 0 instructions: 85000002 cycles: 133547842 heartbeat IPC: 0.639361 cumulative IPC: 0.578564 (Simulation time: 0 hr 48 min 44 sec) 
Heartbeat CPU 0 instructions: 86000001 cycles: 135382428 heartbeat IPC: 0.545082 cumulative IPC: 0.578097 (Simulation time: 0 hr 49 min 16 sec) 
Heartbeat CPU 0 instructions: 87000003 cycles: 137081457 heartbeat IPC: 0.588573 cumulative IPC: 0.57823 (Simulation time: 0 hr 49 min 50 sec) 
Heartbeat CPU 0 instructions: 88000000 cycles: 138638290 heartbeat IPC: 0.642328 cumulative IPC: 0.578971 (Simulation time: 0 hr 50 min 20 sec) 
Heartbeat CPU 0 instructions: 89000003 cycles: 140440125 heartbeat IPC: 0.554991 cumulative IPC: 0.578655 (Simulation time: 0 hr 50 min 54 sec) 
Heartbeat CPU 0 instructions: 90000001 cycles: 142168053 heartbeat IPC: 0.578727 cumulative IPC: 0.578656 (Simulation time: 0 hr 51 min 24 sec) 
Heartbeat CPU 0 instructions: 91000000 cycles: 143732671 heartbeat IPC: 0.639133 cumulative IPC: 0.579332 (Simulation time: 0 hr 51 min 52 sec) 
Heartbeat CPU 0 instructions: 92000000 cycles: 145545789 heartbeat IPC: 0.551536 cumulative IPC: 0.578976 (Simulation time: 0 hr 52 min 20 sec) 
Heartbeat CPU 0 instructions: 93000003 cycles: 147298144 heartbeat IPC: 0.570662 cumulative IPC: 0.578875 (Simulation time: 0 hr 52 min 48 sec) 
Heartbeat CPU 0 instructions: 94000002 cycles: 148850651 heartbeat IPC: 0.644119 cumulative IPC: 0.579574 (Simulation time: 0 hr 53 min 16 sec) 
Heartbeat CPU 0 instructions: 95000001 cycles: 150637096 heartbeat IPC: 0.55977 cumulative IPC: 0.579333 (Simulation time: 0 hr 53 min 42 sec) 
Heartbeat CPU 0 instructions: 96000000 cycles: 152398264 heartbeat IPC: 0.567804 cumulative IPC: 0.579196 (Simulation time: 0 hr 54 min 7 sec) 
Heartbeat CPU 0 instructions: 97000002 cycles: 153971572 heartbeat IPC: 0.635605 cumulative IPC: 0.579787 (Simulation time: 0 hr 54 min 32 sec) 
Heartbeat CPU 0 instructions: 98000000 cycles: 155806811 heartbeat IPC: 0.544887 cumulative IPC: 0.579366 (Simulation time: 0 hr 54 min 59 sec) 
Heartbeat CPU 0 instructions: 99000001 cycles: 157556193 heartbeat IPC: 0.571631 cumulative IPC: 0.579278 (Simulation time: 0 hr 55 min 22 sec) 
Heartbeat CPU 0 instructions: 100000000 cycles: 159114285 heartbeat IPC: 0.64181 cumulative IPC: 0.579905 (Simulation time: 0 hr 55 min 41 sec) 
Heartbeat CPU 0 instructions: 101000002 cycles: 160984028 heartbeat IPC: 0.534834 cumulative IPC: 0.579369 (Simulation time: 0 hr 56 min 3 sec) 
Heartbeat CPU 0 instructions: 102000002 cycles: 162733712 heartbeat IPC: 0.571532 cumulative IPC: 0.579282 (Simulation time: 0 hr 56 min 26 sec) 
Heartbeat CPU 0 instructions: 103000001 cycles: 164315441 heartbeat IPC: 0.632219 cumulative IPC: 0.579804 (Simulation time: 0 hr 56 min 46 sec) 
Heartbeat CPU 0 instructions: 104000000 cycles: 166184317 heartbeat IPC: 0.53508 cumulative IPC: 0.579289 (Simulation time: 0 hr 57 min 12 sec) 
Heartbeat CPU 0 instructions: 105000001 cycles: 167927647 heartbeat IPC: 0.573615 cumulative IPC: 0.579229 (Simulation time: 0 hr 57 min 35 sec) 
Heartbeat CPU 0 instructions: 106000001 cycles: 169504420 heartbeat IPC: 0.634207 cumulative IPC: 0.579753 (Simulation time: 0 hr 57 min 55 sec) 
Heartbeat CPU 0 instructions: 107000001 cycles: 171381280 heartbeat IPC: 0.532805 cumulative IPC: 0.579226 (Simulation time: 0 hr 58 min 17 sec) 
Heartbeat CPU 0 instructions: 108000000 cycles: 173116903 heartbeat IPC: 0.576161 cumulative IPC: 0.579195 (Simulation time: 0 hr 58 min 37 sec) 
Heartbeat CPU 0 instructions: 109000003 cycles: 174664258 heartbeat IPC: 0.646266 cumulative IPC: 0.579803 (Simulation time: 0 hr 58 min 57 sec) 
Heartbeat CPU 0 instructions: 110000001 cycles: 176599957 heartbeat IPC: 0.516608 cumulative IPC: 0.579094 (Simulation time: 0 hr 59 min 16 sec) 
Finished CPU 0 instructions: 100000003 cycles: 172683415 cummulative IPC: 0.579094 (Simulation time: 0 hr 59 min 16 sec) 

ChampSim completed all CPUs

Region of Interest Statistics

CPU 0 cummulative IPC: 0.579094 instructions: 100000003 cycles: 172683415
LLC TOTAL     ACCESS:    6081114  HIT:    1699570  MISS:    4381544
LLC LOAD      ACCESS:     451940  HIT:      24488  MISS:     427452
LLC RFO       ACCESS:    2591741  HIT:     134623  MISS:    2457118
LLC PREFETCH  ACCESS:     445460  HIT:      29493  MISS:     415967
LLC WRITEBACK ACCESS:    2591973  HIT:    1510966  MISS:    1081007
Insertion Distribution: 
	LOAD 0 0 229314 228470 
	RFO 19980 0 1405911 1249541 
	PREF 0 9381 256539 193764 
	WRITEBACK 0 0 0 1169799 
Total Prefetch Downgrades: 24390
