
*** ChampSim Multicore Out-of-Order Simulator ***

Warmup Instructions: 10000000
Simulation Instructions: 100000000
Configuration: 2
Number of CPUs: 1
LLC sets: 2048
LLC ways: 16
Off-chip DRAM Channels: 1 Width: 64-bit Data Rate: 1600 MT/s

CPU 0 runs /datasets/cs240c-wi22-a00-public/data/Assignment2-gz/cactusADM_1495B.trace.gz
CPU 0 L1D next line prefetcher
CPU 0 L2C IP-based stride prefetcher
Initialize SRRIP state
Heartbeat CPU 0 instructions: 1000003 cycles: 593383 heartbeat IPC: 1.68526 cumulative IPC: 1.68526 (Simulation time: 0 hr 0 min 37 sec) 
Heartbeat CPU 0 instructions: 2000000 cycles: 1186345 heartbeat IPC: 1.68644 cumulative IPC: 1.68585 (Simulation time: 0 hr 1 min 15 sec) 
Heartbeat CPU 0 instructions: 3000003 cycles: 1779703 heartbeat IPC: 1.68533 cumulative IPC: 1.68568 (Simulation time: 0 hr 1 min 53 sec) 
Heartbeat CPU 0 instructions: 4000000 cycles: 2372522 heartbeat IPC: 1.68685 cumulative IPC: 1.68597 (Simulation time: 0 hr 2 min 30 sec) 
Heartbeat CPU 0 instructions: 5000000 cycles: 2965579 heartbeat IPC: 1.68618 cumulative IPC: 1.68601 (Simulation time: 0 hr 3 min 7 sec) 
Heartbeat CPU 0 instructions: 6000001 cycles: 3558796 heartbeat IPC: 1.68573 cumulative IPC: 1.68596 (Simulation time: 0 hr 3 min 43 sec) 
Heartbeat CPU 0 instructions: 7000000 cycles: 4151738 heartbeat IPC: 1.6865 cumulative IPC: 1.68604 (Simulation time: 0 hr 4 min 22 sec) 
Heartbeat CPU 0 instructions: 8000000 cycles: 4906795 heartbeat IPC: 1.3244 cumulative IPC: 1.63039 (Simulation time: 0 hr 5 min 4 sec) 
Heartbeat CPU 0 instructions: 9000002 cycles: 5499994 heartbeat IPC: 1.68578 cumulative IPC: 1.63637 (Simulation time: 0 hr 5 min 38 sec) 
Heartbeat CPU 0 instructions: 10000002 cycles: 6092916 heartbeat IPC: 1.68656 cumulative IPC: 1.64125 (Simulation time: 0 hr 6 min 12 sec) 

Warmup complete CPU 0 instructions: 10000002 cycles: 6092916 (Simulation time: 0 hr 6 min 12 sec) 

Heartbeat CPU 0 instructions: 11000000 cycles: 7786203 heartbeat IPC: 0.590566 cumulative IPC: 0.590566 (Simulation time: 0 hr 6 min 51 sec) 
Heartbeat CPU 0 instructions: 12000000 cycles: 9530710 heartbeat IPC: 0.573228 cumulative IPC: 0.581768 (Simulation time: 0 hr 7 min 31 sec) 
Heartbeat CPU 0 instructions: 13000002 cycles: 11275941 heartbeat IPC: 0.572991 cumulative IPC: 0.578813 (Simulation time: 0 hr 8 min 9 sec) 
Heartbeat CPU 0 instructions: 14000001 cycles: 13011308 heartbeat IPC: 0.576246 cumulative IPC: 0.578169 (Simulation time: 0 hr 8 min 47 sec) 
Heartbeat CPU 0 instructions: 15000001 cycles: 14668814 heartbeat IPC: 0.603316 cumulative IPC: 0.583029 (Simulation time: 0 hr 9 min 28 sec) 
Heartbeat CPU 0 instructions: 16000000 cycles: 16390510 heartbeat IPC: 0.580822 cumulative IPC: 0.58266 (Simulation time: 0 hr 10 min 7 sec) 
Heartbeat CPU 0 instructions: 17000003 cycles: 18134618 heartbeat IPC: 0.573361 cumulative IPC: 0.581313 (Simulation time: 0 hr 10 min 44 sec) 
Heartbeat CPU 0 instructions: 18000000 cycles: 19880508 heartbeat IPC: 0.572772 cumulative IPC: 0.580232 (Simulation time: 0 hr 11 min 22 sec) 
Heartbeat CPU 0 instructions: 19000002 cycles: 21591148 heartbeat IPC: 0.584578 cumulative IPC: 0.580711 (Simulation time: 0 hr 12 min 0 sec) 
Heartbeat CPU 0 instructions: 20000000 cycles: 23257343 heartbeat IPC: 0.600169 cumulative IPC: 0.5826 (Simulation time: 0 hr 12 min 38 sec) 
Heartbeat CPU 0 instructions: 21000001 cycles: 29588889 heartbeat IPC: 0.157939 cumulative IPC: 0.468165 (Simulation time: 0 hr 13 min 24 sec) 
Heartbeat CPU 0 instructions: 22000000 cycles: 31684823 heartbeat IPC: 0.477114 cumulative IPC: 0.468898 (Simulation time: 0 hr 14 min 5 sec) 
Heartbeat CPU 0 instructions: 23000001 cycles: 33419224 heartbeat IPC: 0.576568 cumulative IPC: 0.475732 (Simulation time: 0 hr 14 min 46 sec) 
Heartbeat CPU 0 instructions: 24000000 cycles: 35078259 heartbeat IPC: 0.602759 cumulative IPC: 0.483003 (Simulation time: 0 hr 15 min 25 sec) 
Heartbeat CPU 0 instructions: 25000002 cycles: 36807611 heartbeat IPC: 0.578252 cumulative IPC: 0.488366 (Simulation time: 0 hr 16 min 5 sec) 
Heartbeat CPU 0 instructions: 26000000 cycles: 38565214 heartbeat IPC: 0.568956 cumulative IPC: 0.492728 (Simulation time: 0 hr 16 min 49 sec) 
Heartbeat CPU 0 instructions: 27000002 cycles: 40307054 heartbeat IPC: 0.574107 cumulative IPC: 0.496871 (Simulation time: 0 hr 17 min 29 sec) 
Heartbeat CPU 0 instructions: 28000000 cycles: 42019025 heartbeat IPC: 0.584121 cumulative IPC: 0.501028 (Simulation time: 0 hr 18 min 10 sec) 
Heartbeat CPU 0 instructions: 29000003 cycles: 43680242 heartbeat IPC: 0.60197 cumulative IPC: 0.50549 (Simulation time: 0 hr 18 min 49 sec) 
Heartbeat CPU 0 instructions: 30000000 cycles: 45450048 heartbeat IPC: 0.565032 cumulative IPC: 0.508167 (Simulation time: 0 hr 19 min 29 sec) 
Heartbeat CPU 0 instructions: 31000003 cycles: 47193392 heartbeat IPC: 0.573612 cumulative IPC: 0.510943 (Simulation time: 0 hr 20 min 11 sec) 
Heartbeat CPU 0 instructions: 32000000 cycles: 48934609 heartbeat IPC: 0.574309 cumulative IPC: 0.513518 (Simulation time: 0 hr 20 min 52 sec) 
Heartbeat CPU 0 instructions: 33000001 cycles: 50615851 heartbeat IPC: 0.594799 cumulative IPC: 0.516588 (Simulation time: 0 hr 21 min 31 sec) 
Heartbeat CPU 0 instructions: 34000002 cycles: 56039037 heartbeat IPC: 0.184394 cumulative IPC: 0.480518 (Simulation time: 0 hr 22 min 17 sec) 
Heartbeat CPU 0 instructions: 35000002 cycles: 59031480 heartbeat IPC: 0.334175 cumulative IPC: 0.472246 (Simulation time: 0 hr 23 min 1 sec) 
Heartbeat CPU 0 instructions: 36000000 cycles: 60772531 heartbeat IPC: 0.574365 cumulative IPC: 0.475497 (Simulation time: 0 hr 23 min 43 sec) 
Heartbeat CPU 0 instructions: 37000001 cycles: 62490703 heartbeat IPC: 0.582015 cumulative IPC: 0.478742 (Simulation time: 0 hr 24 min 24 sec) 
Heartbeat CPU 0 instructions: 38000003 cycles: 64148782 heartbeat IPC: 0.603109 cumulative IPC: 0.482294 (Simulation time: 0 hr 25 min 9 sec) 
Heartbeat CPU 0 instructions: 39000003 cycles: 65883812 heartbeat IPC: 0.576359 cumulative IPC: 0.485024 (Simulation time: 0 hr 25 min 52 sec) 
Heartbeat CPU 0 instructions: 40000000 cycles: 67625497 heartbeat IPC: 0.574155 cumulative IPC: 0.487547 (Simulation time: 0 hr 26 min 32 sec) 
Heartbeat CPU 0 instructions: 41000002 cycles: 69365801 heartbeat IPC: 0.574613 cumulative IPC: 0.489941 (Simulation time: 0 hr 27 min 17 sec) 
Heartbeat CPU 0 instructions: 42000000 cycles: 71049693 heartbeat IPC: 0.593861 cumulative IPC: 0.492635 (Simulation time: 0 hr 27 min 58 sec) 
Heartbeat CPU 0 instructions: 43000000 cycles: 72734543 heartbeat IPC: 0.593525 cumulative IPC: 0.495186 (Simulation time: 0 hr 28 min 37 sec) 
Heartbeat CPU 0 instructions: 44000000 cycles: 74477008 heartbeat IPC: 0.5739 cumulative IPC: 0.497192 (Simulation time: 0 hr 29 min 16 sec) 
Heartbeat CPU 0 instructions: 45000003 cycles: 76220240 heartbeat IPC: 0.573649 cumulative IPC: 0.499092 (Simulation time: 0 hr 29 min 54 sec) 
Heartbeat CPU 0 instructions: 46000002 cycles: 77954559 heartbeat IPC: 0.576595 cumulative IPC: 0.500963 (Simulation time: 0 hr 30 min 31 sec) 
Heartbeat CPU 0 instructions: 47000002 cycles: 82337569 heartbeat IPC: 0.228154 cumulative IPC: 0.48528 (Simulation time: 0 hr 31 min 13 sec) 
Heartbeat CPU 0 instructions: 48000000 cycles: 86305786 heartbeat IPC: 0.252002 cumulative IPC: 0.473739 (Simulation time: 0 hr 31 min 54 sec) 
Heartbeat CPU 0 instructions: 49000000 cycles: 88045239 heartbeat IPC: 0.574893 cumulative IPC: 0.475886 (Simulation time: 0 hr 32 min 33 sec) 
Heartbeat CPU 0 instructions: 50000000 cycles: 89786792 heartbeat IPC: 0.5742 cumulative IPC: 0.477932 (Simulation time: 0 hr 33 min 12 sec) 
Heartbeat CPU 0 instructions: 51000000 cycles: 91475893 heartbeat IPC: 0.592031 cumulative IPC: 0.480189 (Simulation time: 0 hr 33 min 51 sec) 
Heartbeat CPU 0 instructions: 52000000 cycles: 93158923 heartbeat IPC: 0.594166 cumulative IPC: 0.482393 (Simulation time: 0 hr 34 min 32 sec) 
Heartbeat CPU 0 instructions: 53000003 cycles: 94898087 heartbeat IPC: 0.574991 cumulative IPC: 0.484206 (Simulation time: 0 hr 35 min 13 sec) 
Heartbeat CPU 0 instructions: 54000001 cycles: 96637352 heartbeat IPC: 0.574954 cumulative IPC: 0.485949 (Simulation time: 0 hr 35 min 51 sec) 
Heartbeat CPU 0 instructions: 55000000 cycles: 98375076 heartbeat IPC: 0.575465 cumulative IPC: 0.487635 (Simulation time: 0 hr 36 min 29 sec) 
Heartbeat CPU 0 instructions: 56000000 cycles: 100035637 heartbeat IPC: 0.602206 cumulative IPC: 0.48966 (Simulation time: 0 hr 37 min 9 sec) 
Heartbeat CPU 0 instructions: 57000000 cycles: 101749473 heartbeat IPC: 0.583486 cumulative IPC: 0.491341 (Simulation time: 0 hr 37 min 49 sec) 
Heartbeat CPU 0 instructions: 58000002 cycles: 103491586 heartbeat IPC: 0.574017 cumulative IPC: 0.49282 (Simulation time: 0 hr 38 min 30 sec) 
Heartbeat CPU 0 instructions: 59000001 cycles: 105233227 heartbeat IPC: 0.574171 cumulative IPC: 0.494249 (Simulation time: 0 hr 39 min 11 sec) 
Heartbeat CPU 0 instructions: 60000000 cycles: 108594558 heartbeat IPC: 0.297501 cumulative IPC: 0.487797 (Simulation time: 0 hr 39 min 52 sec) 
Heartbeat CPU 0 instructions: 61000001 cycles: 113568289 heartbeat IPC: 0.201057 cumulative IPC: 0.474527 (Simulation time: 0 hr 40 min 36 sec) 
Heartbeat CPU 0 instructions: 62000000 cycles: 115306765 heartbeat IPC: 0.575216 cumulative IPC: 0.47613 (Simulation time: 0 hr 41 min 15 sec) 
Heartbeat CPU 0 instructions: 63000000 cycles: 117048800 heartbeat IPC: 0.574041 cumulative IPC: 0.477667 (Simulation time: 0 hr 41 min 54 sec) 
Heartbeat CPU 0 instructions: 64000000 cycles: 118786039 heartbeat IPC: 0.575626 cumulative IPC: 0.479177 (Simulation time: 0 hr 42 min 34 sec) 
Heartbeat CPU 0 instructions: 65000002 cycles: 120449244 heartbeat IPC: 0.60125 cumulative IPC: 0.480953 (Simulation time: 0 hr 43 min 12 sec) 
Heartbeat CPU 0 instructions: 66000003 cycles: 122157405 heartbeat IPC: 0.585425 cumulative IPC: 0.48249 (Simulation time: 0 hr 43 min 49 sec) 
Heartbeat CPU 0 instructions: 67000001 cycles: 123899362 heartbeat IPC: 0.574066 cumulative IPC: 0.483844 (Simulation time: 0 hr 44 min 25 sec) 
Heartbeat CPU 0 instructions: 68000000 cycles: 125642968 heartbeat IPC: 0.573523 cumulative IPC: 0.485152 (Simulation time: 0 hr 45 min 3 sec) 
Heartbeat CPU 0 instructions: 69000003 cycles: 127364021 heartbeat IPC: 0.581041 cumulative IPC: 0.486513 (Simulation time: 0 hr 45 min 40 sec) 
Heartbeat CPU 0 instructions: 70000000 cycles: 129020899 heartbeat IPC: 0.603543 cumulative IPC: 0.488091 (Simulation time: 0 hr 46 min 16 sec) 
Heartbeat CPU 0 instructions: 71000002 cycles: 130753484 heartbeat IPC: 0.577173 cumulative IPC: 0.489329 (Simulation time: 0 hr 46 min 52 sec) 
Heartbeat CPU 0 instructions: 72000000 cycles: 132496059 heartbeat IPC: 0.573862 cumulative IPC: 0.490494 (Simulation time: 0 hr 47 min 27 sec) 
Heartbeat CPU 0 instructions: 73000001 cycles: 134967075 heartbeat IPC: 0.404692 cumulative IPC: 0.488849 (Simulation time: 0 hr 48 min 3 sec) 
Heartbeat CPU 0 instructions: 74000002 cycles: 140897736 heartbeat IPC: 0.168615 cumulative IPC: 0.47476 (Simulation time: 0 hr 48 min 44 sec) 
Heartbeat CPU 0 instructions: 75000002 cycles: 142598736 heartbeat IPC: 0.587889 cumulative IPC: 0.47617 (Simulation time: 0 hr 49 min 23 sec) 
Heartbeat CPU 0 instructions: 76000000 cycles: 144341498 heartbeat IPC: 0.573801 cumulative IPC: 0.477401 (Simulation time: 0 hr 49 min 58 sec) 
Heartbeat CPU 0 instructions: 77000001 cycles: 146083719 heartbeat IPC: 0.573981 cumulative IPC: 0.478603 (Simulation time: 0 hr 50 min 33 sec) 
Heartbeat CPU 0 instructions: 78000000 cycles: 147809339 heartbeat IPC: 0.579501 cumulative IPC: 0.479831 (Simulation time: 0 hr 51 min 5 sec) 
Heartbeat CPU 0 instructions: 79000003 cycles: 149460055 heartbeat IPC: 0.6058 cumulative IPC: 0.481282 (Simulation time: 0 hr 51 min 37 sec) 
Heartbeat CPU 0 instructions: 80000000 cycles: 151194146 heartbeat IPC: 0.576669 cumulative IPC: 0.482422 (Simulation time: 0 hr 52 min 9 sec) 
Heartbeat CPU 0 instructions: 81000002 cycles: 152937037 heartbeat IPC: 0.573761 cumulative IPC: 0.483506 (Simulation time: 0 hr 52 min 40 sec) 
Heartbeat CPU 0 instructions: 82000000 cycles: 154679739 heartbeat IPC: 0.57382 cumulative IPC: 0.484565 (Simulation time: 0 hr 53 min 10 sec) 
Heartbeat CPU 0 instructions: 83000000 cycles: 156370769 heartbeat IPC: 0.591356 cumulative IPC: 0.485767 (Simulation time: 0 hr 53 min 38 sec) 
Heartbeat CPU 0 instructions: 84000000 cycles: 158050601 heartbeat IPC: 0.595298 cumulative IPC: 0.486978 (Simulation time: 0 hr 54 min 5 sec) 
Heartbeat CPU 0 instructions: 85000003 cycles: 159815861 heartbeat IPC: 0.56649 cumulative IPC: 0.487891 (Simulation time: 0 hr 54 min 34 sec) 
Heartbeat CPU 0 instructions: 86000000 cycles: 161558530 heartbeat IPC: 0.573831 cumulative IPC: 0.488854 (Simulation time: 0 hr 55 min 1 sec) 
Heartbeat CPU 0 instructions: 87000001 cycles: 168311620 heartbeat IPC: 0.148081 cumulative IPC: 0.474668 (Simulation time: 0 hr 55 min 30 sec) 
Heartbeat CPU 0 instructions: 88000000 cycles: 169959744 heartbeat IPC: 0.60675 cumulative IPC: 0.475996 (Simulation time: 0 hr 55 min 54 sec) 
Heartbeat CPU 0 instructions: 89000002 cycles: 171690069 heartbeat IPC: 0.577927 cumulative IPC: 0.477061 (Simulation time: 0 hr 56 min 18 sec) 
Heartbeat CPU 0 instructions: 90000001 cycles: 173458507 heartbeat IPC: 0.56547 cumulative IPC: 0.477995 (Simulation time: 0 hr 56 min 42 sec) 
Heartbeat CPU 0 instructions: 91000002 cycles: 175200301 heartbeat IPC: 0.574121 cumulative IPC: 0.478986 (Simulation time: 0 hr 57 min 6 sec) 
Heartbeat CPU 0 instructions: 92000000 cycles: 176898390 heartbeat IPC: 0.588896 cumulative IPC: 0.480078 (Simulation time: 0 hr 57 min 29 sec) 
Heartbeat CPU 0 instructions: 93000002 cycles: 178571379 heartbeat IPC: 0.597734 cumulative IPC: 0.48122 (Simulation time: 0 hr 57 min 52 sec) 
Heartbeat CPU 0 instructions: 94000002 cycles: 180309229 heartbeat IPC: 0.575424 cumulative IPC: 0.482159 (Simulation time: 0 hr 58 min 15 sec) 
Heartbeat CPU 0 instructions: 95000003 cycles: 182052599 heartbeat IPC: 0.573602 cumulative IPC: 0.483065 (Simulation time: 0 hr 58 min 38 sec) 
Heartbeat CPU 0 instructions: 96000000 cycles: 183790685 heartbeat IPC: 0.575344 cumulative IPC: 0.483968 (Simulation time: 0 hr 59 min 1 sec) 
Heartbeat CPU 0 instructions: 97000003 cycles: 185456331 heartbeat IPC: 0.600369 cumulative IPC: 0.485049 (Simulation time: 0 hr 59 min 23 sec) 
Heartbeat CPU 0 instructions: 98000003 cycles: 187160470 heartbeat IPC: 0.586807 cumulative IPC: 0.486006 (Simulation time: 0 hr 59 min 44 sec) 
Heartbeat CPU 0 instructions: 99000000 cycles: 188901806 heartbeat IPC: 0.57427 cumulative IPC: 0.486847 (Simulation time: 1 hr 0 min 4 sec) 
Heartbeat CPU 0 instructions: 100000000 cycles: 195667463 heartbeat IPC: 0.147805 cumulative IPC: 0.474747 (Simulation time: 1 hr 0 min 27 sec) 
Heartbeat CPU 0 instructions: 101000000 cycles: 197368014 heartbeat IPC: 0.588045 cumulative IPC: 0.475755 (Simulation time: 1 hr 0 min 45 sec) 
Heartbeat CPU 0 instructions: 102000003 cycles: 199037437 heartbeat IPC: 0.599011 cumulative IPC: 0.476821 (Simulation time: 1 hr 1 min 1 sec) 
Heartbeat CPU 0 instructions: 103000000 cycles: 200772825 heartbeat IPC: 0.576238 cumulative IPC: 0.477707 (Simulation time: 1 hr 1 min 18 sec) 
Heartbeat CPU 0 instructions: 104000000 cycles: 202515796 heartbeat IPC: 0.573733 cumulative IPC: 0.478559 (Simulation time: 1 hr 1 min 34 sec) 
Heartbeat CPU 0 instructions: 105000001 cycles: 204253777 heartbeat IPC: 0.575381 cumulative IPC: 0.479409 (Simulation time: 1 hr 1 min 51 sec) 
Heartbeat CPU 0 instructions: 106000000 cycles: 205924271 heartbeat IPC: 0.598625 cumulative IPC: 0.480405 (Simulation time: 1 hr 2 min 5 sec) 
Heartbeat CPU 0 instructions: 107000001 cycles: 207623226 heartbeat IPC: 0.588598 cumulative IPC: 0.481317 (Simulation time: 1 hr 2 min 19 sec) 
Heartbeat CPU 0 instructions: 108000000 cycles: 209365223 heartbeat IPC: 0.574053 cumulative IPC: 0.482112 (Simulation time: 1 hr 2 min 32 sec) 
Heartbeat CPU 0 instructions: 109000002 cycles: 211107264 heartbeat IPC: 0.57404 cumulative IPC: 0.482893 (Simulation time: 1 hr 2 min 45 sec) 
Heartbeat CPU 0 instructions: 110000001 cycles: 212835831 heartbeat IPC: 0.578513 cumulative IPC: 0.483692 (Simulation time: 1 hr 2 min 57 sec) 
Finished CPU 0 instructions: 100000003 cycles: 206742916 cummulative IPC: 0.483693 (Simulation time: 1 hr 2 min 57 sec) 

ChampSim completed all CPUs

Region of Interest Statistics

CPU 0 cummulative IPC: 0.483693 instructions: 100000003 cycles: 206742916
LLC TOTAL     ACCESS:    1107826  HIT:     264183  MISS:     843643
LLC LOAD      ACCESS:      23418  HIT:       1953  MISS:      21465
LLC RFO       ACCESS:     245174  HIT:      64484  MISS:     180690
LLC PREFETCH  ACCESS:     593723  HIT:      44977  MISS:     548746
LLC WRITEBACK ACCESS:     245511  HIT:     152769  MISS:      92742
Insertion Distribution: 
	LOAD 0 0 13182 9812 
	RFO 1416 0 122846 87408 
	PREF 0 66212 304220 244678 
	WRITEBACK 0 0 0 97963 
Total Prefetch Downgrades: 56823
