
*** ChampSim Multicore Out-of-Order Simulator ***

Warmup Instructions: 10000000
Simulation Instructions: 100000000
Configuration: 2
Number of CPUs: 1
LLC sets: 2048
LLC ways: 16
Off-chip DRAM Channels: 1 Width: 64-bit Data Rate: 1600 MT/s

CPU 0 runs /datasets/cs240c-wi22-a00-public/data/Assignment2-gz/bzip2_259B.trace.gz
CPU 0 L1D next line prefetcher
CPU 0 L2C IP-based stride prefetcher
Initialize SRRIP state
Heartbeat CPU 0 instructions: 1000002 cycles: 428875 heartbeat IPC: 2.33169 cumulative IPC: 2.33169 (Simulation time: 0 hr 0 min 29 sec) 
Heartbeat CPU 0 instructions: 2000003 cycles: 861057 heartbeat IPC: 2.31384 cumulative IPC: 2.32273 (Simulation time: 0 hr 0 min 59 sec) 
Heartbeat CPU 0 instructions: 3000001 cycles: 1286790 heartbeat IPC: 2.34889 cumulative IPC: 2.33138 (Simulation time: 0 hr 1 min 27 sec) 
Heartbeat CPU 0 instructions: 4000000 cycles: 1685062 heartbeat IPC: 2.51084 cumulative IPC: 2.3738 (Simulation time: 0 hr 1 min 53 sec) 
Heartbeat CPU 0 instructions: 5000001 cycles: 2103495 heartbeat IPC: 2.38987 cumulative IPC: 2.377 (Simulation time: 0 hr 2 min 19 sec) 
Heartbeat CPU 0 instructions: 6000001 cycles: 2532858 heartbeat IPC: 2.32903 cumulative IPC: 2.36887 (Simulation time: 0 hr 2 min 48 sec) 
Heartbeat CPU 0 instructions: 7000003 cycles: 2961906 heartbeat IPC: 2.33075 cumulative IPC: 2.36334 (Simulation time: 0 hr 3 min 17 sec) 
Heartbeat CPU 0 instructions: 8000000 cycles: 3391719 heartbeat IPC: 2.32659 cumulative IPC: 2.35869 (Simulation time: 0 hr 3 min 46 sec) 
Heartbeat CPU 0 instructions: 9000000 cycles: 3819845 heartbeat IPC: 2.33576 cumulative IPC: 2.35612 (Simulation time: 0 hr 4 min 15 sec) 
Heartbeat CPU 0 instructions: 10000002 cycles: 4193917 heartbeat IPC: 2.67329 cumulative IPC: 2.38441 (Simulation time: 0 hr 4 min 38 sec) 

Warmup complete CPU 0 instructions: 10000002 cycles: 4193917 (Simulation time: 0 hr 4 min 38 sec) 

Heartbeat CPU 0 instructions: 11000002 cycles: 5032044 heartbeat IPC: 1.19314 cumulative IPC: 1.19314 (Simulation time: 0 hr 5 min 6 sec) 
Heartbeat CPU 0 instructions: 12000000 cycles: 6142699 heartbeat IPC: 0.900368 cumulative IPC: 1.02628 (Simulation time: 0 hr 5 min 40 sec) 
Heartbeat CPU 0 instructions: 13000002 cycles: 7079301 heartbeat IPC: 1.06769 cumulative IPC: 1.03972 (Simulation time: 0 hr 6 min 13 sec) 
Heartbeat CPU 0 instructions: 14000003 cycles: 7999165 heartbeat IPC: 1.08712 cumulative IPC: 1.05118 (Simulation time: 0 hr 6 min 49 sec) 
Heartbeat CPU 0 instructions: 15000002 cycles: 9029763 heartbeat IPC: 0.970309 cumulative IPC: 1.03395 (Simulation time: 0 hr 7 min 24 sec) 
Heartbeat CPU 0 instructions: 16000000 cycles: 10045220 heartbeat IPC: 0.984776 cumulative IPC: 1.02541 (Simulation time: 0 hr 7 min 58 sec) 
Heartbeat CPU 0 instructions: 17000002 cycles: 11201895 heartbeat IPC: 0.864549 cumulative IPC: 0.998862 (Simulation time: 0 hr 8 min 33 sec) 
Heartbeat CPU 0 instructions: 18000001 cycles: 12291031 heartbeat IPC: 0.918158 cumulative IPC: 0.988006 (Simulation time: 0 hr 9 min 8 sec) 
Heartbeat CPU 0 instructions: 19000003 cycles: 13256493 heartbeat IPC: 1.03578 cumulative IPC: 0.993095 (Simulation time: 0 hr 9 min 40 sec) 
Heartbeat CPU 0 instructions: 20000000 cycles: 14249354 heartbeat IPC: 1.00719 cumulative IPC: 0.994487 (Simulation time: 0 hr 10 min 13 sec) 
Heartbeat CPU 0 instructions: 21000001 cycles: 15158355 heartbeat IPC: 1.10011 cumulative IPC: 1.00324 (Simulation time: 0 hr 10 min 42 sec) 
Heartbeat CPU 0 instructions: 22000001 cycles: 16073879 heartbeat IPC: 1.09227 cumulative IPC: 1.0101 (Simulation time: 0 hr 11 min 12 sec) 
Heartbeat CPU 0 instructions: 23000002 cycles: 16980301 heartbeat IPC: 1.10324 cumulative IPC: 1.01671 (Simulation time: 0 hr 11 min 40 sec) 
Heartbeat CPU 0 instructions: 24000000 cycles: 17886894 heartbeat IPC: 1.10303 cumulative IPC: 1.02242 (Simulation time: 0 hr 12 min 9 sec) 
Heartbeat CPU 0 instructions: 25000000 cycles: 18791314 heartbeat IPC: 1.10568 cumulative IPC: 1.02758 (Simulation time: 0 hr 12 min 37 sec) 
Heartbeat CPU 0 instructions: 26000000 cycles: 19738544 heartbeat IPC: 1.05571 cumulative IPC: 1.02929 (Simulation time: 0 hr 13 min 6 sec) 
Heartbeat CPU 0 instructions: 27000003 cycles: 20683850 heartbeat IPC: 1.05786 cumulative IPC: 1.03093 (Simulation time: 0 hr 13 min 35 sec) 
Heartbeat CPU 0 instructions: 28000000 cycles: 21595905 heartbeat IPC: 1.09642 cumulative IPC: 1.03436 (Simulation time: 0 hr 14 min 3 sec) 
Heartbeat CPU 0 instructions: 29000000 cycles: 22500015 heartbeat IPC: 1.10606 cumulative IPC: 1.03791 (Simulation time: 0 hr 14 min 30 sec) 
Heartbeat CPU 0 instructions: 30000001 cycles: 23478619 heartbeat IPC: 1.02186 cumulative IPC: 1.03709 (Simulation time: 0 hr 14 min 59 sec) 
Heartbeat CPU 0 instructions: 31000001 cycles: 24383174 heartbeat IPC: 1.10552 cumulative IPC: 1.04016 (Simulation time: 0 hr 15 min 27 sec) 
Heartbeat CPU 0 instructions: 32000000 cycles: 25275081 heartbeat IPC: 1.12119 cumulative IPC: 1.04359 (Simulation time: 0 hr 15 min 53 sec) 
Heartbeat CPU 0 instructions: 33000002 cycles: 26446005 heartbeat IPC: 0.854028 cumulative IPC: 1.03361 (Simulation time: 0 hr 16 min 22 sec) 
Heartbeat CPU 0 instructions: 34000003 cycles: 27700855 heartbeat IPC: 0.796909 cumulative IPC: 1.02098 (Simulation time: 0 hr 16 min 53 sec) 
Heartbeat CPU 0 instructions: 35000001 cycles: 28755707 heartbeat IPC: 0.947998 cumulative IPC: 1.01784 (Simulation time: 0 hr 17 min 25 sec) 
Heartbeat CPU 0 instructions: 36000000 cycles: 29933729 heartbeat IPC: 0.84888 cumulative IPC: 1.01011 (Simulation time: 0 hr 17 min 55 sec) 
Heartbeat CPU 0 instructions: 37000002 cycles: 30976740 heartbeat IPC: 0.958765 cumulative IPC: 1.00811 (Simulation time: 0 hr 18 min 21 sec) 
Heartbeat CPU 0 instructions: 38000003 cycles: 32091421 heartbeat IPC: 0.897119 cumulative IPC: 1.00367 (Simulation time: 0 hr 18 min 50 sec) 
Heartbeat CPU 0 instructions: 39000001 cycles: 33235398 heartbeat IPC: 0.874142 cumulative IPC: 0.998572 (Simulation time: 0 hr 19 min 17 sec) 
Heartbeat CPU 0 instructions: 40000000 cycles: 34304843 heartbeat IPC: 0.935064 cumulative IPC: 0.996316 (Simulation time: 0 hr 19 min 44 sec) 
Heartbeat CPU 0 instructions: 41000001 cycles: 35494149 heartbeat IPC: 0.840827 cumulative IPC: 0.990408 (Simulation time: 0 hr 20 min 11 sec) 
Heartbeat CPU 0 instructions: 42000000 cycles: 36703455 heartbeat IPC: 0.82692 cumulative IPC: 0.984326 (Simulation time: 0 hr 20 min 38 sec) 
Heartbeat CPU 0 instructions: 43000003 cycles: 37919969 heartbeat IPC: 0.822023 cumulative IPC: 0.978472 (Simulation time: 0 hr 21 min 4 sec) 
Heartbeat CPU 0 instructions: 44000000 cycles: 39134648 heartbeat IPC: 0.82326 cumulative IPC: 0.973076 (Simulation time: 0 hr 21 min 31 sec) 
Heartbeat CPU 0 instructions: 45000000 cycles: 40356390 heartbeat IPC: 0.818503 cumulative IPC: 0.967854 (Simulation time: 0 hr 21 min 58 sec) 
Heartbeat CPU 0 instructions: 46000002 cycles: 41595515 heartbeat IPC: 0.807023 cumulative IPC: 0.962526 (Simulation time: 0 hr 22 min 24 sec) 
Heartbeat CPU 0 instructions: 47000000 cycles: 42826399 heartbeat IPC: 0.812423 cumulative IPC: 0.957743 (Simulation time: 0 hr 22 min 50 sec) 
Heartbeat CPU 0 instructions: 48000000 cycles: 44064568 heartbeat IPC: 0.807644 cumulative IPC: 0.953082 (Simulation time: 0 hr 23 min 17 sec) 
Heartbeat CPU 0 instructions: 49000003 cycles: 45333395 heartbeat IPC: 0.788132 cumulative IPC: 0.947995 (Simulation time: 0 hr 23 min 43 sec) 
Heartbeat CPU 0 instructions: 50000001 cycles: 46372447 heartbeat IPC: 0.962414 cumulative IPC: 0.94835 (Simulation time: 0 hr 24 min 11 sec) 
Heartbeat CPU 0 instructions: 51000002 cycles: 47538019 heartbeat IPC: 0.857949 cumulative IPC: 0.945919 (Simulation time: 0 hr 24 min 37 sec) 
Heartbeat CPU 0 instructions: 52000000 cycles: 48656179 heartbeat IPC: 0.894325 cumulative IPC: 0.944621 (Simulation time: 0 hr 25 min 5 sec) 
Heartbeat CPU 0 instructions: 53000001 cycles: 49851599 heartbeat IPC: 0.836527 cumulative IPC: 0.941791 (Simulation time: 0 hr 25 min 37 sec) 
Heartbeat CPU 0 instructions: 54000000 cycles: 51076953 heartbeat IPC: 0.81609 cumulative IPC: 0.938506 (Simulation time: 0 hr 26 min 5 sec) 
Heartbeat CPU 0 instructions: 55000000 cycles: 52228556 heartbeat IPC: 0.868355 cumulative IPC: 0.936824 (Simulation time: 0 hr 26 min 33 sec) 
Heartbeat CPU 0 instructions: 56000000 cycles: 53452163 heartbeat IPC: 0.817256 cumulative IPC: 0.933854 (Simulation time: 0 hr 27 min 2 sec) 
Heartbeat CPU 0 instructions: 57000000 cycles: 54673218 heartbeat IPC: 0.818964 cumulative IPC: 0.931075 (Simulation time: 0 hr 27 min 27 sec) 
Heartbeat CPU 0 instructions: 58000002 cycles: 55705352 heartbeat IPC: 0.968868 cumulative IPC: 0.931832 (Simulation time: 0 hr 27 min 49 sec) 
Heartbeat CPU 0 instructions: 59000000 cycles: 56806440 heartbeat IPC: 0.908191 cumulative IPC: 0.931337 (Simulation time: 0 hr 28 min 13 sec) 
Heartbeat CPU 0 instructions: 60000000 cycles: 57986339 heartbeat IPC: 0.84753 cumulative IPC: 0.929499 (Simulation time: 0 hr 28 min 41 sec) 
Heartbeat CPU 0 instructions: 61000000 cycles: 59130486 heartbeat IPC: 0.874014 cumulative IPC: 0.928343 (Simulation time: 0 hr 29 min 7 sec) 
Heartbeat CPU 0 instructions: 62000002 cycles: 59975158 heartbeat IPC: 1.18389 cumulative IPC: 0.932213 (Simulation time: 0 hr 29 min 32 sec) 
Heartbeat CPU 0 instructions: 63000003 cycles: 60890936 heartbeat IPC: 1.09197 cumulative IPC: 0.934793 (Simulation time: 0 hr 30 min 3 sec) 
Heartbeat CPU 0 instructions: 64000000 cycles: 61984139 heartbeat IPC: 0.91474 cumulative IPC: 0.934414 (Simulation time: 0 hr 30 min 36 sec) 
Heartbeat CPU 0 instructions: 65000003 cycles: 62985645 heartbeat IPC: 0.998499 cumulative IPC: 0.935506 (Simulation time: 0 hr 31 min 10 sec) 
Heartbeat CPU 0 instructions: 66000003 cycles: 63942962 heartbeat IPC: 1.04459 cumulative IPC: 0.937253 (Simulation time: 0 hr 31 min 44 sec) 
Heartbeat CPU 0 instructions: 67000003 cycles: 65002999 heartbeat IPC: 0.943363 cumulative IPC: 0.93736 (Simulation time: 0 hr 32 min 19 sec) 
Heartbeat CPU 0 instructions: 68000000 cycles: 66103731 heartbeat IPC: 0.908484 cumulative IPC: 0.936847 (Simulation time: 0 hr 32 min 52 sec) 
Heartbeat CPU 0 instructions: 69000003 cycles: 67223791 heartbeat IPC: 0.892812 cumulative IPC: 0.936064 (Simulation time: 0 hr 33 min 26 sec) 
Heartbeat CPU 0 instructions: 70000003 cycles: 68492827 heartbeat IPC: 0.788 cumulative IPC: 0.933142 (Simulation time: 0 hr 33 min 57 sec) 
Heartbeat CPU 0 instructions: 71000000 cycles: 69790081 heartbeat IPC: 0.770857 cumulative IPC: 0.929932 (Simulation time: 0 hr 34 min 31 sec) 
Heartbeat CPU 0 instructions: 72000000 cycles: 70948599 heartbeat IPC: 0.863172 cumulative IPC: 0.928774 (Simulation time: 0 hr 35 min 4 sec) 
Heartbeat CPU 0 instructions: 73000003 cycles: 72259514 heartbeat IPC: 0.762828 cumulative IPC: 0.925578 (Simulation time: 0 hr 35 min 37 sec) 
Heartbeat CPU 0 instructions: 74000001 cycles: 73497496 heartbeat IPC: 0.807765 cumulative IPC: 0.923473 (Simulation time: 0 hr 36 min 8 sec) 
Heartbeat CPU 0 instructions: 75000000 cycles: 74654203 heartbeat IPC: 0.864522 cumulative IPC: 0.922505 (Simulation time: 0 hr 36 min 40 sec) 
Heartbeat CPU 0 instructions: 76000000 cycles: 75737106 heartbeat IPC: 0.923444 cumulative IPC: 0.92252 (Simulation time: 0 hr 37 min 11 sec) 
Heartbeat CPU 0 instructions: 77000003 cycles: 76710056 heartbeat IPC: 1.02781 cumulative IPC: 0.923932 (Simulation time: 0 hr 37 min 42 sec) 
Heartbeat CPU 0 instructions: 78000000 cycles: 77679015 heartbeat IPC: 1.03203 cumulative IPC: 0.925358 (Simulation time: 0 hr 38 min 15 sec) 
Heartbeat CPU 0 instructions: 79000003 cycles: 78767572 heartbeat IPC: 0.91865 cumulative IPC: 0.92526 (Simulation time: 0 hr 38 min 45 sec) 
Heartbeat CPU 0 instructions: 80000000 cycles: 80026005 heartbeat IPC: 0.794637 cumulative IPC: 0.923092 (Simulation time: 0 hr 39 min 16 sec) 
Heartbeat CPU 0 instructions: 81000001 cycles: 81202084 heartbeat IPC: 0.850284 cumulative IPC: 0.92198 (Simulation time: 0 hr 39 min 47 sec) 
Heartbeat CPU 0 instructions: 82000000 cycles: 82333292 heartbeat IPC: 0.88401 cumulative IPC: 0.92143 (Simulation time: 0 hr 40 min 18 sec) 
Heartbeat CPU 0 instructions: 83000002 cycles: 83397346 heartbeat IPC: 0.939804 cumulative IPC: 0.921677 (Simulation time: 0 hr 40 min 48 sec) 
Heartbeat CPU 0 instructions: 84000000 cycles: 84347476 heartbeat IPC: 1.05249 cumulative IPC: 0.923228 (Simulation time: 0 hr 41 min 20 sec) 
Heartbeat CPU 0 instructions: 85000003 cycles: 85295101 heartbeat IPC: 1.05527 cumulative IPC: 0.924771 (Simulation time: 0 hr 41 min 52 sec) 
Heartbeat CPU 0 instructions: 86000003 cycles: 86342381 heartbeat IPC: 0.954854 cumulative IPC: 0.925154 (Simulation time: 0 hr 42 min 22 sec) 
Heartbeat CPU 0 instructions: 87000002 cycles: 87386228 heartbeat IPC: 0.957994 cumulative IPC: 0.925566 (Simulation time: 0 hr 42 min 51 sec) 
Heartbeat CPU 0 instructions: 88000000 cycles: 88498884 heartbeat IPC: 0.898749 cumulative IPC: 0.925212 (Simulation time: 0 hr 43 min 18 sec) 
Heartbeat CPU 0 instructions: 89000002 cycles: 89505437 heartbeat IPC: 0.993492 cumulative IPC: 0.926018 (Simulation time: 0 hr 43 min 42 sec) 
Heartbeat CPU 0 instructions: 90000001 cycles: 90628375 heartbeat IPC: 0.89052 cumulative IPC: 0.925557 (Simulation time: 0 hr 44 min 7 sec) 
Heartbeat CPU 0 instructions: 91000002 cycles: 91741948 heartbeat IPC: 0.898011 cumulative IPC: 0.925206 (Simulation time: 0 hr 44 min 29 sec) 
Heartbeat CPU 0 instructions: 92000000 cycles: 92780809 heartbeat IPC: 0.962591 cumulative IPC: 0.925645 (Simulation time: 0 hr 44 min 52 sec) 
Heartbeat CPU 0 instructions: 93000000 cycles: 93968536 heartbeat IPC: 0.841944 cumulative IPC: 0.924537 (Simulation time: 0 hr 45 min 16 sec) 
Heartbeat CPU 0 instructions: 94000003 cycles: 95144734 heartbeat IPC: 0.8502 cumulative IPC: 0.923576 (Simulation time: 0 hr 45 min 40 sec) 
Heartbeat CPU 0 instructions: 95000002 cycles: 96330415 heartbeat IPC: 0.843396 cumulative IPC: 0.922544 (Simulation time: 0 hr 46 min 4 sec) 
Heartbeat CPU 0 instructions: 96000000 cycles: 97500437 heartbeat IPC: 0.854683 cumulative IPC: 0.921693 (Simulation time: 0 hr 46 min 27 sec) 
Heartbeat CPU 0 instructions: 97000002 cycles: 98717357 heartbeat IPC: 0.821748 cumulative IPC: 0.920407 (Simulation time: 0 hr 46 min 51 sec) 
Heartbeat CPU 0 instructions: 98000000 cycles: 99951212 heartbeat IPC: 0.810466 cumulative IPC: 0.91899 (Simulation time: 0 hr 47 min 16 sec) 
Heartbeat CPU 0 instructions: 99000000 cycles: 101191144 heartbeat IPC: 0.806496 cumulative IPC: 0.917552 (Simulation time: 0 hr 47 min 39 sec) 
Heartbeat CPU 0 instructions: 100000000 cycles: 102433208 heartbeat IPC: 0.805111 cumulative IPC: 0.91613 (Simulation time: 0 hr 48 min 3 sec) 
Heartbeat CPU 0 instructions: 101000003 cycles: 103581027 heartbeat IPC: 0.87122 cumulative IPC: 0.915612 (Simulation time: 0 hr 48 min 27 sec) 
Heartbeat CPU 0 instructions: 102000000 cycles: 104700850 heartbeat IPC: 0.892996 cumulative IPC: 0.91536 (Simulation time: 0 hr 48 min 51 sec) 
Heartbeat CPU 0 instructions: 103000000 cycles: 105802203 heartbeat IPC: 0.907974 cumulative IPC: 0.91528 (Simulation time: 0 hr 49 min 15 sec) 
Heartbeat CPU 0 instructions: 104000000 cycles: 106955274 heartbeat IPC: 0.867249 cumulative IPC: 0.914741 (Simulation time: 0 hr 49 min 40 sec) 
Heartbeat CPU 0 instructions: 105000002 cycles: 108167182 heartbeat IPC: 0.825147 cumulative IPC: 0.913696 (Simulation time: 0 hr 50 min 6 sec) 
Heartbeat CPU 0 instructions: 106000001 cycles: 109300735 heartbeat IPC: 0.882181 cumulative IPC: 0.913357 (Simulation time: 0 hr 50 min 30 sec) 
Heartbeat CPU 0 instructions: 107000000 cycles: 110503273 heartbeat IPC: 0.831574 cumulative IPC: 0.912431 (Simulation time: 0 hr 50 min 52 sec) 
Heartbeat CPU 0 instructions: 108000000 cycles: 111702202 heartbeat IPC: 0.834078 cumulative IPC: 0.911558 (Simulation time: 0 hr 51 min 16 sec) 
Heartbeat CPU 0 instructions: 109000000 cycles: 112714692 heartbeat IPC: 0.987664 cumulative IPC: 0.912268 (Simulation time: 0 hr 51 min 38 sec) 
Heartbeat CPU 0 instructions: 110000000 cycles: 113876130 heartbeat IPC: 0.861002 cumulative IPC: 0.911725 (Simulation time: 0 hr 52 min 0 sec) 
Finished CPU 0 instructions: 100000002 cycles: 109682215 cummulative IPC: 0.911725 (Simulation time: 0 hr 52 min 0 sec) 

ChampSim completed all CPUs

Region of Interest Statistics

CPU 0 cummulative IPC: 0.911725 instructions: 100000002 cycles: 109682215
LLC TOTAL     ACCESS:    1373527  HIT:    1070700  MISS:     302827
LLC LOAD      ACCESS:     396214  HIT:     346477  MISS:      49737
LLC RFO       ACCESS:     104382  HIT:      42131  MISS:      62251
LLC PREFETCH  ACCESS:     675950  HIT:     504386  MISS:     171564
LLC WRITEBACK ACCESS:     196981  HIT:     177706  MISS:      19275
Insertion Distribution: 
	LOAD 41086 0 8652 145 
	RFO 15561 0 46452 16192 
	PREF 0 19479 113569 38996 
	WRITEBACK 0 0 0 19279 
Total Prefetch Downgrades: 36038
