
*** ChampSim Multicore Out-of-Order Simulator ***

Warmup Instructions: 10000000
Simulation Instructions: 100000000
Configuration: 2
Number of CPUs: 1
LLC sets: 2048
LLC ways: 16
Off-chip DRAM Channels: 1 Width: 64-bit Data Rate: 1600 MT/s

CPU 0 runs /datasets/cs240c-wi22-a00-public/data/Assignment2-gz/soplex_205B.trace.gz
CPU 0 L1D next line prefetcher
CPU 0 L2C IP-based stride prefetcher
Initialize SRRIP state
Heartbeat CPU 0 instructions: 1000000 cycles: 395620 heartbeat IPC: 2.52768 cumulative IPC: 2.52768 (Simulation time: 0 hr 0 min 25 sec) 
Heartbeat CPU 0 instructions: 2000002 cycles: 928305 heartbeat IPC: 1.87729 cumulative IPC: 2.15447 (Simulation time: 0 hr 0 min 51 sec) 
Heartbeat CPU 0 instructions: 3000000 cycles: 1400124 heartbeat IPC: 2.11945 cumulative IPC: 2.14267 (Simulation time: 0 hr 1 min 28 sec) 
Heartbeat CPU 0 instructions: 4000000 cycles: 1761433 heartbeat IPC: 2.76771 cumulative IPC: 2.27088 (Simulation time: 0 hr 1 min 55 sec) 
Heartbeat CPU 0 instructions: 5000003 cycles: 2204921 heartbeat IPC: 2.25486 cumulative IPC: 2.26766 (Simulation time: 0 hr 2 min 27 sec) 
Heartbeat CPU 0 instructions: 6000003 cycles: 2624817 heartbeat IPC: 2.38154 cumulative IPC: 2.28587 (Simulation time: 0 hr 2 min 59 sec) 
Heartbeat CPU 0 instructions: 7000000 cycles: 3009252 heartbeat IPC: 2.60121 cumulative IPC: 2.32616 (Simulation time: 0 hr 3 min 23 sec) 
Heartbeat CPU 0 instructions: 8000000 cycles: 3403096 heartbeat IPC: 2.53908 cumulative IPC: 2.3508 (Simulation time: 0 hr 3 min 50 sec) 
Heartbeat CPU 0 instructions: 9000003 cycles: 3928821 heartbeat IPC: 1.90214 cumulative IPC: 2.29076 (Simulation time: 0 hr 4 min 20 sec) 
Heartbeat CPU 0 instructions: 10000000 cycles: 4414093 heartbeat IPC: 2.06069 cumulative IPC: 2.26547 (Simulation time: 0 hr 4 min 51 sec) 

Warmup complete CPU 0 instructions: 10000004 cycles: 4414095 (Simulation time: 0 hr 4 min 51 sec) 

Heartbeat CPU 0 instructions: 11000001 cycles: 7016971 heartbeat IPC: 0.38419 cumulative IPC: 0.384189 (Simulation time: 0 hr 5 min 26 sec) 
Heartbeat CPU 0 instructions: 12000000 cycles: 9274289 heartbeat IPC: 0.443003 cumulative IPC: 0.411505 (Simulation time: 0 hr 6 min 3 sec) 
Heartbeat CPU 0 instructions: 13000000 cycles: 12860225 heartbeat IPC: 0.278867 cumulative IPC: 0.355192 (Simulation time: 0 hr 6 min 52 sec) 
Heartbeat CPU 0 instructions: 14000003 cycles: 14161383 heartbeat IPC: 0.768548 cumulative IPC: 0.41037 (Simulation time: 0 hr 7 min 16 sec) 
Heartbeat CPU 0 instructions: 15000000 cycles: 15904699 heartbeat IPC: 0.573618 cumulative IPC: 0.435138 (Simulation time: 0 hr 7 min 43 sec) 
Heartbeat CPU 0 instructions: 16000000 cycles: 19006601 heartbeat IPC: 0.322383 cumulative IPC: 0.41117 (Simulation time: 0 hr 8 min 22 sec) 
Heartbeat CPU 0 instructions: 17000001 cycles: 22595016 heartbeat IPC: 0.278675 cumulative IPC: 0.385019 (Simulation time: 0 hr 9 min 14 sec) 
Heartbeat CPU 0 instructions: 18000000 cycles: 28805301 heartbeat IPC: 0.161023 cumulative IPC: 0.327987 (Simulation time: 0 hr 10 min 3 sec) 
Heartbeat CPU 0 instructions: 19000003 cycles: 33157818 heartbeat IPC: 0.229753 cumulative IPC: 0.313112 (Simulation time: 0 hr 10 min 50 sec) 
Heartbeat CPU 0 instructions: 20000000 cycles: 35353478 heartbeat IPC: 0.455443 cumulative IPC: 0.323213 (Simulation time: 0 hr 11 min 34 sec) 
Heartbeat CPU 0 instructions: 21000001 cycles: 39827733 heartbeat IPC: 0.223501 cumulative IPC: 0.310615 (Simulation time: 0 hr 12 min 19 sec) 
Heartbeat CPU 0 instructions: 22000001 cycles: 43806580 heartbeat IPC: 0.251329 cumulative IPC: 0.304627 (Simulation time: 0 hr 12 min 59 sec) 
Heartbeat CPU 0 instructions: 23000002 cycles: 46948139 heartbeat IPC: 0.318314 cumulative IPC: 0.305637 (Simulation time: 0 hr 13 min 39 sec) 
Heartbeat CPU 0 instructions: 24000000 cycles: 50599393 heartbeat IPC: 0.273878 cumulative IPC: 0.303127 (Simulation time: 0 hr 14 min 21 sec) 
Heartbeat CPU 0 instructions: 25000000 cycles: 54174029 heartbeat IPC: 0.279749 cumulative IPC: 0.301447 (Simulation time: 0 hr 14 min 56 sec) 
Heartbeat CPU 0 instructions: 26000002 cycles: 57690705 heartbeat IPC: 0.28436 cumulative IPC: 0.300319 (Simulation time: 0 hr 15 min 38 sec) 
Heartbeat CPU 0 instructions: 27000000 cycles: 60206174 heartbeat IPC: 0.397539 cumulative IPC: 0.304703 (Simulation time: 0 hr 16 min 11 sec) 
Heartbeat CPU 0 instructions: 28000000 cycles: 63685163 heartbeat IPC: 0.28744 cumulative IPC: 0.303689 (Simulation time: 0 hr 16 min 54 sec) 
Heartbeat CPU 0 instructions: 29000002 cycles: 65703016 heartbeat IPC: 0.495577 cumulative IPC: 0.310007 (Simulation time: 0 hr 17 min 32 sec) 
Heartbeat CPU 0 instructions: 30000003 cycles: 66685105 heartbeat IPC: 1.01824 cumulative IPC: 0.321177 (Simulation time: 0 hr 18 min 1 sec) 
Heartbeat CPU 0 instructions: 31000003 cycles: 68075396 heartbeat IPC: 0.719274 cumulative IPC: 0.329871 (Simulation time: 0 hr 18 min 36 sec) 
Heartbeat CPU 0 instructions: 32000000 cycles: 71259795 heartbeat IPC: 0.31403 cumulative IPC: 0.329116 (Simulation time: 0 hr 19 min 18 sec) 
Heartbeat CPU 0 instructions: 33000000 cycles: 74039794 heartbeat IPC: 0.359712 cumulative IPC: 0.330338 (Simulation time: 0 hr 20 min 2 sec) 
Heartbeat CPU 0 instructions: 34000002 cycles: 75647760 heartbeat IPC: 0.621905 cumulative IPC: 0.336919 (Simulation time: 0 hr 20 min 36 sec) 
Heartbeat CPU 0 instructions: 35000003 cycles: 78344672 heartbeat IPC: 0.370795 cumulative IPC: 0.338155 (Simulation time: 0 hr 21 min 10 sec) 
Heartbeat CPU 0 instructions: 36000000 cycles: 80727317 heartbeat IPC: 0.4197 cumulative IPC: 0.340701 (Simulation time: 0 hr 21 min 49 sec) 
Heartbeat CPU 0 instructions: 37000000 cycles: 84217396 heartbeat IPC: 0.286526 cumulative IPC: 0.338332 (Simulation time: 0 hr 22 min 29 sec) 
Heartbeat CPU 0 instructions: 38000002 cycles: 85515457 heartbeat IPC: 0.770381 cumulative IPC: 0.345247 (Simulation time: 0 hr 22 min 54 sec) 
Heartbeat CPU 0 instructions: 39000003 cycles: 87454508 heartbeat IPC: 0.515717 cumulative IPC: 0.349228 (Simulation time: 0 hr 23 min 24 sec) 
Heartbeat CPU 0 instructions: 40000000 cycles: 90604247 heartbeat IPC: 0.317486 cumulative IPC: 0.348068 (Simulation time: 0 hr 24 min 2 sec) 
Heartbeat CPU 0 instructions: 41000000 cycles: 93863632 heartbeat IPC: 0.306806 cumulative IPC: 0.346564 (Simulation time: 0 hr 24 min 40 sec) 
Heartbeat CPU 0 instructions: 42000001 cycles: 95657240 heartbeat IPC: 0.557536 cumulative IPC: 0.350711 (Simulation time: 0 hr 25 min 13 sec) 
Heartbeat CPU 0 instructions: 43000000 cycles: 99270902 heartbeat IPC: 0.276727 cumulative IPC: 0.347893 (Simulation time: 0 hr 25 min 56 sec) 
Heartbeat CPU 0 instructions: 44000000 cycles: 101589613 heartbeat IPC: 0.431274 cumulative IPC: 0.349882 (Simulation time: 0 hr 26 min 25 sec) 
Heartbeat CPU 0 instructions: 45000001 cycles: 102878769 heartbeat IPC: 0.775702 cumulative IPC: 0.355457 (Simulation time: 0 hr 26 min 53 sec) 
Heartbeat CPU 0 instructions: 46000002 cycles: 105764238 heartbeat IPC: 0.346564 cumulative IPC: 0.355204 (Simulation time: 0 hr 27 min 25 sec) 
Heartbeat CPU 0 instructions: 47000000 cycles: 108818338 heartbeat IPC: 0.327428 cumulative IPC: 0.354392 (Simulation time: 0 hr 28 min 2 sec) 
Heartbeat CPU 0 instructions: 48000000 cycles: 111945345 heartbeat IPC: 0.319795 cumulative IPC: 0.353386 (Simulation time: 0 hr 28 min 43 sec) 
Heartbeat CPU 0 instructions: 49000001 cycles: 113913443 heartbeat IPC: 0.508105 cumulative IPC: 0.356166 (Simulation time: 0 hr 29 min 15 sec) 
Heartbeat CPU 0 instructions: 50000000 cycles: 117317228 heartbeat IPC: 0.29379 cumulative IPC: 0.354286 (Simulation time: 0 hr 29 min 59 sec) 
Heartbeat CPU 0 instructions: 51000003 cycles: 119798538 heartbeat IPC: 0.403014 cumulative IPC: 0.355334 (Simulation time: 0 hr 30 min 30 sec) 
Heartbeat CPU 0 instructions: 52000000 cycles: 121088874 heartbeat IPC: 0.77499 cumulative IPC: 0.359975 (Simulation time: 0 hr 30 min 53 sec) 
Heartbeat CPU 0 instructions: 53000003 cycles: 123974100 heartbeat IPC: 0.346594 cumulative IPC: 0.359652 (Simulation time: 0 hr 31 min 25 sec) 
Heartbeat CPU 0 instructions: 54000001 cycles: 127042823 heartbeat IPC: 0.325868 cumulative IPC: 0.358807 (Simulation time: 0 hr 32 min 9 sec) 
Heartbeat CPU 0 instructions: 55000001 cycles: 130333245 heartbeat IPC: 0.303912 cumulative IPC: 0.357372 (Simulation time: 0 hr 32 min 52 sec) 
Heartbeat CPU 0 instructions: 56000000 cycles: 132160089 heartbeat IPC: 0.547392 cumulative IPC: 0.36009 (Simulation time: 0 hr 33 min 23 sec) 
Heartbeat CPU 0 instructions: 57000000 cycles: 135685036 heartbeat IPC: 0.283692 cumulative IPC: 0.358038 (Simulation time: 0 hr 34 min 8 sec) 
Heartbeat CPU 0 instructions: 58000000 cycles: 137989057 heartbeat IPC: 0.434024 cumulative IPC: 0.359349 (Simulation time: 0 hr 34 min 38 sec) 
Heartbeat CPU 0 instructions: 59000001 cycles: 139265937 heartbeat IPC: 0.78316 cumulative IPC: 0.363362 (Simulation time: 0 hr 35 min 1 sec) 
Heartbeat CPU 0 instructions: 60000000 cycles: 142181488 heartbeat IPC: 0.342988 cumulative IPC: 0.362931 (Simulation time: 0 hr 35 min 34 sec) 
Heartbeat CPU 0 instructions: 61000003 cycles: 145245302 heartbeat IPC: 0.326392 cumulative IPC: 0.362136 (Simulation time: 0 hr 36 min 13 sec) 
Heartbeat CPU 0 instructions: 62000002 cycles: 148683069 heartbeat IPC: 0.290886 cumulative IPC: 0.360438 (Simulation time: 0 hr 36 min 56 sec) 
Heartbeat CPU 0 instructions: 63000001 cycles: 150291027 heartbeat IPC: 0.621906 cumulative IPC: 0.36332 (Simulation time: 0 hr 37 min 30 sec) 
Heartbeat CPU 0 instructions: 64000000 cycles: 154232311 heartbeat IPC: 0.253724 cumulative IPC: 0.360437 (Simulation time: 0 hr 38 min 13 sec) 
Heartbeat CPU 0 instructions: 65000001 cycles: 156172179 heartbeat IPC: 0.5155 cumulative IPC: 0.362419 (Simulation time: 0 hr 38 min 36 sec) 
Heartbeat CPU 0 instructions: 66000000 cycles: 157451021 heartbeat IPC: 0.781957 cumulative IPC: 0.365925 (Simulation time: 0 hr 38 min 59 sec) 
Heartbeat CPU 0 instructions: 67000003 cycles: 160408451 heartbeat IPC: 0.338132 cumulative IPC: 0.365398 (Simulation time: 0 hr 39 min 33 sec) 
Heartbeat CPU 0 instructions: 68000000 cycles: 163563225 heartbeat IPC: 0.316979 cumulative IPC: 0.364438 (Simulation time: 0 hr 40 min 12 sec) 
Heartbeat CPU 0 instructions: 69000001 cycles: 166524928 heartbeat IPC: 0.337644 cumulative IPC: 0.363949 (Simulation time: 0 hr 40 min 53 sec) 
Heartbeat CPU 0 instructions: 70000000 cycles: 168397267 heartbeat IPC: 0.534091 cumulative IPC: 0.365891 (Simulation time: 0 hr 41 min 28 sec) 
Heartbeat CPU 0 instructions: 71000001 cycles: 171966051 heartbeat IPC: 0.280208 cumulative IPC: 0.364066 (Simulation time: 0 hr 42 min 13 sec) 
Heartbeat CPU 0 instructions: 72000000 cycles: 174246700 heartbeat IPC: 0.438471 cumulative IPC: 0.365065 (Simulation time: 0 hr 42 min 44 sec) 
Heartbeat CPU 0 instructions: 73000000 cycles: 175521730 heartbeat IPC: 0.784295 cumulative IPC: 0.368189 (Simulation time: 0 hr 43 min 9 sec) 
Heartbeat CPU 0 instructions: 74000001 cycles: 178422632 heartbeat IPC: 0.344721 cumulative IPC: 0.367798 (Simulation time: 0 hr 43 min 45 sec) 
Heartbeat CPU 0 instructions: 75000003 cycles: 181491170 heartbeat IPC: 0.325889 cumulative IPC: 0.367072 (Simulation time: 0 hr 44 min 23 sec) 
Heartbeat CPU 0 instructions: 76000000 cycles: 184945107 heartbeat IPC: 0.289524 cumulative IPC: 0.365588 (Simulation time: 0 hr 45 min 3 sec) 
Heartbeat CPU 0 instructions: 77000000 cycles: 186511685 heartbeat IPC: 0.638334 cumulative IPC: 0.367935 (Simulation time: 0 hr 45 min 33 sec) 
Heartbeat CPU 0 instructions: 78000000 cycles: 190547719 heartbeat IPC: 0.247768 cumulative IPC: 0.365329 (Simulation time: 0 hr 46 min 14 sec) 
Heartbeat CPU 0 instructions: 79000002 cycles: 192391153 heartbeat IPC: 0.542467 cumulative IPC: 0.367066 (Simulation time: 0 hr 46 min 39 sec) 
Heartbeat CPU 0 instructions: 80000000 cycles: 193674641 heartbeat IPC: 0.779125 cumulative IPC: 0.36986 (Simulation time: 0 hr 47 min 5 sec) 
Heartbeat CPU 0 instructions: 81000000 cycles: 196583570 heartbeat IPC: 0.343769 cumulative IPC: 0.369466 (Simulation time: 0 hr 47 min 39 sec) 
Heartbeat CPU 0 instructions: 82000000 cycles: 199739304 heartbeat IPC: 0.316883 cumulative IPC: 0.368616 (Simulation time: 0 hr 48 min 18 sec) 
Heartbeat CPU 0 instructions: 83000000 cycles: 203246514 heartbeat IPC: 0.285127 cumulative IPC: 0.367143 (Simulation time: 0 hr 48 min 57 sec) 
Heartbeat CPU 0 instructions: 84000000 cycles: 204914226 heartbeat IPC: 0.599624 cumulative IPC: 0.369077 (Simulation time: 0 hr 49 min 31 sec) 
Heartbeat CPU 0 instructions: 85000000 cycles: 209053808 heartbeat IPC: 0.24157 cumulative IPC: 0.366498 (Simulation time: 0 hr 50 min 16 sec) 
Heartbeat CPU 0 instructions: 86000002 cycles: 210506540 heartbeat IPC: 0.68836 cumulative IPC: 0.368767 (Simulation time: 0 hr 50 min 38 sec) 
Heartbeat CPU 0 instructions: 87000002 cycles: 211780382 heartbeat IPC: 0.785027 cumulative IPC: 0.371324 (Simulation time: 0 hr 51 min 2 sec) 
Heartbeat CPU 0 instructions: 88000000 cycles: 214675636 heartbeat IPC: 0.345392 cumulative IPC: 0.370967 (Simulation time: 0 hr 51 min 32 sec) 
Heartbeat CPU 0 instructions: 89000003 cycles: 218246204 heartbeat IPC: 0.280068 cumulative IPC: 0.369449 (Simulation time: 0 hr 52 min 9 sec) 
Heartbeat CPU 0 instructions: 90000001 cycles: 221421744 heartbeat IPC: 0.314906 cumulative IPC: 0.368651 (Simulation time: 0 hr 52 min 40 sec) 
Heartbeat CPU 0 instructions: 91000003 cycles: 223299155 heartbeat IPC: 0.532649 cumulative IPC: 0.370057 (Simulation time: 0 hr 53 min 9 sec) 
Heartbeat CPU 0 instructions: 92000000 cycles: 227212658 heartbeat IPC: 0.255525 cumulative IPC: 0.368045 (Simulation time: 0 hr 53 min 39 sec) 
Heartbeat CPU 0 instructions: 93000000 cycles: 228515672 heartbeat IPC: 0.767451 cumulative IPC: 0.370368 (Simulation time: 0 hr 53 min 56 sec) 
Heartbeat CPU 0 instructions: 94000000 cycles: 229926111 heartbeat IPC: 0.708999 cumulative IPC: 0.372486 (Simulation time: 0 hr 54 min 14 sec) 
Heartbeat CPU 0 instructions: 95000002 cycles: 232967250 heartbeat IPC: 0.328825 cumulative IPC: 0.371905 (Simulation time: 0 hr 54 min 41 sec) 
Heartbeat CPU 0 instructions: 96000000 cycles: 235804525 heartbeat IPC: 0.35245 cumulative IPC: 0.371666 (Simulation time: 0 hr 55 min 6 sec) 
Heartbeat CPU 0 instructions: 97000003 cycles: 238626893 heartbeat IPC: 0.354313 cumulative IPC: 0.371457 (Simulation time: 0 hr 55 min 28 sec) 
Heartbeat CPU 0 instructions: 98000003 cycles: 241003275 heartbeat IPC: 0.420808 cumulative IPC: 0.371953 (Simulation time: 0 hr 55 min 50 sec) 
Heartbeat CPU 0 instructions: 99000000 cycles: 244449867 heartbeat IPC: 0.290141 cumulative IPC: 0.370778 (Simulation time: 0 hr 56 min 14 sec) 
Heartbeat CPU 0 instructions: 100000000 cycles: 245746126 heartbeat IPC: 0.771451 cumulative IPC: 0.37293 (Simulation time: 0 hr 56 min 27 sec) 
Heartbeat CPU 0 instructions: 101000003 cycles: 247708605 heartbeat IPC: 0.509561 cumulative IPC: 0.374032 (Simulation time: 0 hr 56 min 45 sec) 
Heartbeat CPU 0 instructions: 102000001 cycles: 250783933 heartbeat IPC: 0.325168 cumulative IPC: 0.373422 (Simulation time: 0 hr 57 min 11 sec) 
Heartbeat CPU 0 instructions: 103000000 cycles: 252929703 heartbeat IPC: 0.466033 cumulative IPC: 0.374222 (Simulation time: 0 hr 57 min 36 sec) 
Heartbeat CPU 0 instructions: 104000000 cycles: 261492949 heartbeat IPC: 0.116778 cumulative IPC: 0.365647 (Simulation time: 0 hr 58 min 6 sec) 
Heartbeat CPU 0 instructions: 105000000 cycles: 263502851 heartbeat IPC: 0.497537 cumulative IPC: 0.36667 (Simulation time: 0 hr 58 min 33 sec) 
Heartbeat CPU 0 instructions: 106000002 cycles: 267562983 heartbeat IPC: 0.246298 cumulative IPC: 0.364812 (Simulation time: 0 hr 58 min 59 sec) 
Heartbeat CPU 0 instructions: 107000003 cycles: 271859065 heartbeat IPC: 0.23277 cumulative IPC: 0.362691 (Simulation time: 0 hr 59 min 24 sec) 
Heartbeat CPU 0 instructions: 108000000 cycles: 275215558 heartbeat IPC: 0.297929 cumulative IPC: 0.361889 (Simulation time: 0 hr 59 min 44 sec) 
Heartbeat CPU 0 instructions: 109000000 cycles: 278558303 heartbeat IPC: 0.299155 cumulative IPC: 0.361124 (Simulation time: 1 hr 0 min 7 sec) 
Heartbeat CPU 0 instructions: 110000003 cycles: 282040832 heartbeat IPC: 0.287149 cumulative IPC: 0.360196 (Simulation time: 1 hr 0 min 24 sec) 
Finished CPU 0 instructions: 100000003 cycles: 277626738 cummulative IPC: 0.360196 (Simulation time: 1 hr 0 min 24 sec) 

ChampSim completed all CPUs

Region of Interest Statistics

CPU 0 cummulative IPC: 0.360196 instructions: 100000003 cycles: 277626738
LLC TOTAL     ACCESS:    8736090  HIT:    4681223  MISS:    4054867
LLC LOAD      ACCESS:    2233936  HIT:    1004249  MISS:    1229687
LLC RFO       ACCESS:     871502  HIT:     316448  MISS:     555054
LLC PREFETCH  ACCESS:    3455759  HIT:    1424420  MISS:    2031339
LLC WRITEBACK ACCESS:    2174893  HIT:    1936106  MISS:     238787
Insertion Distribution: 
	LOAD 401994 0 580431 369726 
	RFO 211840 0 279588 108883 
	PREF 0 239725 1274139 810959 
	WRITEBACK 0 0 0 266942 
Total Prefetch Downgrades: 231915
