
*** ChampSim Multicore Out-of-Order Simulator ***

Warmup Instructions: 10000000
Simulation Instructions: 100000000
Configuration: 2
Number of CPUs: 1
LLC sets: 2048
LLC ways: 16
Off-chip DRAM Channels: 1 Width: 64-bit Data Rate: 1600 MT/s

CPU 0 runs /datasets/cs240c-wi22-a00-public/data/Assignment2-gz/libquantum_964B.trace.gz
CPU 0 L1D next line prefetcher
CPU 0 L2C IP-based stride prefetcher
Initialize SRRIP state
Heartbeat CPU 0 instructions: 1000002 cycles: 333341 heartbeat IPC: 2.99994 cumulative IPC: 2.99994 (Simulation time: 0 hr 0 min 18 sec) 
Heartbeat CPU 0 instructions: 2000001 cycles: 666674 heartbeat IPC: 3 cumulative IPC: 2.99997 (Simulation time: 0 hr 0 min 33 sec) 
Heartbeat CPU 0 instructions: 3000000 cycles: 1000007 heartbeat IPC: 3 cumulative IPC: 2.99998 (Simulation time: 0 hr 0 min 50 sec) 
Heartbeat CPU 0 instructions: 4000000 cycles: 1333341 heartbeat IPC: 2.99999 cumulative IPC: 2.99998 (Simulation time: 0 hr 1 min 7 sec) 
Heartbeat CPU 0 instructions: 5000000 cycles: 1666674 heartbeat IPC: 3 cumulative IPC: 2.99999 (Simulation time: 0 hr 1 min 21 sec) 
Heartbeat CPU 0 instructions: 6000002 cycles: 2000008 heartbeat IPC: 3 cumulative IPC: 2.99999 (Simulation time: 0 hr 1 min 37 sec) 
Heartbeat CPU 0 instructions: 7000001 cycles: 2331518 heartbeat IPC: 3.0165 cumulative IPC: 3.00234 (Simulation time: 0 hr 1 min 52 sec) 
Heartbeat CPU 0 instructions: 8000000 cycles: 2662240 heartbeat IPC: 3.02368 cumulative IPC: 3.00499 (Simulation time: 0 hr 2 min 8 sec) 
Heartbeat CPU 0 instructions: 9000001 cycles: 2992962 heartbeat IPC: 3.02369 cumulative IPC: 3.00705 (Simulation time: 0 hr 2 min 22 sec) 
Heartbeat CPU 0 instructions: 10000001 cycles: 3323684 heartbeat IPC: 3.02369 cumulative IPC: 3.00871 (Simulation time: 0 hr 2 min 38 sec) 

Warmup complete CPU 0 instructions: 10000001 cycles: 3323684 (Simulation time: 0 hr 2 min 38 sec) 

Heartbeat CPU 0 instructions: 11000000 cycles: 5061121 heartbeat IPC: 0.57556 cumulative IPC: 0.57556 (Simulation time: 0 hr 3 min 4 sec) 
Heartbeat CPU 0 instructions: 12000000 cycles: 6810951 heartbeat IPC: 0.571484 cumulative IPC: 0.573515 (Simulation time: 0 hr 3 min 31 sec) 
Heartbeat CPU 0 instructions: 13000001 cycles: 8554727 heartbeat IPC: 0.573469 cumulative IPC: 0.573499 (Simulation time: 0 hr 3 min 54 sec) 
Heartbeat CPU 0 instructions: 14000000 cycles: 10299007 heartbeat IPC: 0.573302 cumulative IPC: 0.57345 (Simulation time: 0 hr 4 min 19 sec) 
Heartbeat CPU 0 instructions: 15000003 cycles: 12044569 heartbeat IPC: 0.572883 cumulative IPC: 0.573337 (Simulation time: 0 hr 4 min 46 sec) 
Heartbeat CPU 0 instructions: 16000000 cycles: 13788454 heartbeat IPC: 0.573431 cumulative IPC: 0.573352 (Simulation time: 0 hr 5 min 11 sec) 
Heartbeat CPU 0 instructions: 17000000 cycles: 15538754 heartbeat IPC: 0.571331 cumulative IPC: 0.573063 (Simulation time: 0 hr 5 min 36 sec) 
Heartbeat CPU 0 instructions: 18000003 cycles: 17276370 heartbeat IPC: 0.575503 cumulative IPC: 0.573366 (Simulation time: 0 hr 6 min 2 sec) 
Heartbeat CPU 0 instructions: 19000002 cycles: 19024657 heartbeat IPC: 0.571988 cumulative IPC: 0.573213 (Simulation time: 0 hr 6 min 27 sec) 
Heartbeat CPU 0 instructions: 20000000 cycles: 20773292 heartbeat IPC: 0.571873 cumulative IPC: 0.573079 (Simulation time: 0 hr 6 min 53 sec) 
Heartbeat CPU 0 instructions: 21000003 cycles: 22514688 heartbeat IPC: 0.574254 cumulative IPC: 0.573185 (Simulation time: 0 hr 7 min 19 sec) 
Heartbeat CPU 0 instructions: 22000002 cycles: 24263233 heartbeat IPC: 0.571903 cumulative IPC: 0.573078 (Simulation time: 0 hr 7 min 44 sec) 
Heartbeat CPU 0 instructions: 23000000 cycles: 26000298 heartbeat IPC: 0.575683 cumulative IPC: 0.573278 (Simulation time: 0 hr 8 min 9 sec) 
Heartbeat CPU 0 instructions: 24000000 cycles: 27752856 heartbeat IPC: 0.570595 cumulative IPC: 0.573085 (Simulation time: 0 hr 8 min 32 sec) 
Heartbeat CPU 0 instructions: 25000000 cycles: 29491431 heartbeat IPC: 0.575184 cumulative IPC: 0.573225 (Simulation time: 0 hr 8 min 58 sec) 
Heartbeat CPU 0 instructions: 26000002 cycles: 31352518 heartbeat IPC: 0.537321 cumulative IPC: 0.570841 (Simulation time: 0 hr 9 min 29 sec) 
Heartbeat CPU 0 instructions: 27000002 cycles: 33872888 heartbeat IPC: 0.396767 cumulative IPC: 0.556479 (Simulation time: 0 hr 10 min 5 sec) 
Heartbeat CPU 0 instructions: 28000000 cycles: 36501528 heartbeat IPC: 0.380424 cumulative IPC: 0.542531 (Simulation time: 0 hr 10 min 40 sec) 
Heartbeat CPU 0 instructions: 29000002 cycles: 39131704 heartbeat IPC: 0.380203 cumulative IPC: 0.530607 (Simulation time: 0 hr 11 min 15 sec) 
Heartbeat CPU 0 instructions: 30000002 cycles: 41760484 heartbeat IPC: 0.380405 cumulative IPC: 0.520335 (Simulation time: 0 hr 11 min 49 sec) 
Heartbeat CPU 0 instructions: 31000002 cycles: 44393901 heartbeat IPC: 0.379735 cumulative IPC: 0.511319 (Simulation time: 0 hr 12 min 24 sec) 
Heartbeat CPU 0 instructions: 32000000 cycles: 47017504 heartbeat IPC: 0.381154 cumulative IPC: 0.503504 (Simulation time: 0 hr 13 min 0 sec) 
Heartbeat CPU 0 instructions: 33000002 cycles: 49639419 heartbeat IPC: 0.381401 cumulative IPC: 0.496592 (Simulation time: 0 hr 13 min 37 sec) 
Heartbeat CPU 0 instructions: 34000002 cycles: 52271400 heartbeat IPC: 0.379942 cumulative IPC: 0.490319 (Simulation time: 0 hr 14 min 14 sec) 
Heartbeat CPU 0 instructions: 35000002 cycles: 54883564 heartbeat IPC: 0.382824 cumulative IPC: 0.484873 (Simulation time: 0 hr 14 min 49 sec) 
Heartbeat CPU 0 instructions: 36000000 cycles: 57392885 heartbeat IPC: 0.398513 cumulative IPC: 0.480865 (Simulation time: 0 hr 15 min 24 sec) 
Heartbeat CPU 0 instructions: 37000001 cycles: 59171583 heartbeat IPC: 0.56221 cumulative IPC: 0.483456 (Simulation time: 0 hr 15 min 52 sec) 
Heartbeat CPU 0 instructions: 38000000 cycles: 60887664 heartbeat IPC: 0.582722 cumulative IPC: 0.486415 (Simulation time: 0 hr 16 min 22 sec) 
Heartbeat CPU 0 instructions: 39000003 cycles: 62422219 heartbeat IPC: 0.651657 cumulative IPC: 0.490706 (Simulation time: 0 hr 16 min 52 sec) 
Heartbeat CPU 0 instructions: 40000000 cycles: 63893504 heartbeat IPC: 0.679676 cumulative IPC: 0.495296 (Simulation time: 0 hr 17 min 22 sec) 
Heartbeat CPU 0 instructions: 41000001 cycles: 65360141 heartbeat IPC: 0.681833 cumulative IPC: 0.499706 (Simulation time: 0 hr 17 min 53 sec) 
Heartbeat CPU 0 instructions: 42000000 cycles: 66826231 heartbeat IPC: 0.682086 cumulative IPC: 0.503917 (Simulation time: 0 hr 18 min 23 sec) 
Heartbeat CPU 0 instructions: 43000001 cycles: 68292394 heartbeat IPC: 0.682053 cumulative IPC: 0.507937 (Simulation time: 0 hr 18 min 54 sec) 
Heartbeat CPU 0 instructions: 44000000 cycles: 69758477 heartbeat IPC: 0.682089 cumulative IPC: 0.51178 (Simulation time: 0 hr 19 min 25 sec) 
Heartbeat CPU 0 instructions: 45000002 cycles: 71224584 heartbeat IPC: 0.68208 cumulative IPC: 0.515457 (Simulation time: 0 hr 19 min 56 sec) 
Heartbeat CPU 0 instructions: 46000001 cycles: 72690765 heartbeat IPC: 0.682043 cumulative IPC: 0.518978 (Simulation time: 0 hr 20 min 27 sec) 
Heartbeat CPU 0 instructions: 47000000 cycles: 74156855 heartbeat IPC: 0.682086 cumulative IPC: 0.522354 (Simulation time: 0 hr 20 min 57 sec) 
Heartbeat CPU 0 instructions: 48000000 cycles: 75623019 heartbeat IPC: 0.682052 cumulative IPC: 0.525593 (Simulation time: 0 hr 21 min 27 sec) 
Heartbeat CPU 0 instructions: 49000002 cycles: 77089454 heartbeat IPC: 0.681927 cumulative IPC: 0.528701 (Simulation time: 0 hr 21 min 57 sec) 
Heartbeat CPU 0 instructions: 50000001 cycles: 78555546 heartbeat IPC: 0.682085 cumulative IPC: 0.53169 (Simulation time: 0 hr 22 min 27 sec) 
Heartbeat CPU 0 instructions: 51000000 cycles: 80021636 heartbeat IPC: 0.682086 cumulative IPC: 0.534564 (Simulation time: 0 hr 22 min 56 sec) 
Heartbeat CPU 0 instructions: 52000000 cycles: 81487901 heartbeat IPC: 0.682005 cumulative IPC: 0.53733 (Simulation time: 0 hr 23 min 26 sec) 
Heartbeat CPU 0 instructions: 53000000 cycles: 82954107 heartbeat IPC: 0.682032 cumulative IPC: 0.539995 (Simulation time: 0 hr 23 min 56 sec) 
Heartbeat CPU 0 instructions: 54000002 cycles: 84420193 heartbeat IPC: 0.68209 cumulative IPC: 0.542563 (Simulation time: 0 hr 24 min 25 sec) 
Heartbeat CPU 0 instructions: 55000002 cycles: 85958184 heartbeat IPC: 0.650199 cumulative IPC: 0.544567 (Simulation time: 0 hr 24 min 53 sec) 
Heartbeat CPU 0 instructions: 56000000 cycles: 87669662 heartbeat IPC: 0.584289 cumulative IPC: 0.545373 (Simulation time: 0 hr 25 min 19 sec) 
Heartbeat CPU 0 instructions: 57000001 cycles: 89398361 heartbeat IPC: 0.57847 cumulative IPC: 0.546037 (Simulation time: 0 hr 25 min 46 sec) 
Heartbeat CPU 0 instructions: 58000000 cycles: 91143378 heartbeat IPC: 0.57306 cumulative IPC: 0.546574 (Simulation time: 0 hr 26 min 13 sec) 
Heartbeat CPU 0 instructions: 59000003 cycles: 92893127 heartbeat IPC: 0.571512 cumulative IPC: 0.547062 (Simulation time: 0 hr 26 min 41 sec) 
Heartbeat CPU 0 instructions: 60000000 cycles: 94642616 heartbeat IPC: 0.571594 cumulative IPC: 0.547532 (Simulation time: 0 hr 27 min 10 sec) 
Heartbeat CPU 0 instructions: 61000002 cycles: 96390911 heartbeat IPC: 0.571987 cumulative IPC: 0.547991 (Simulation time: 0 hr 27 min 41 sec) 
Heartbeat CPU 0 instructions: 62000001 cycles: 98141502 heartbeat IPC: 0.571235 cumulative IPC: 0.54842 (Simulation time: 0 hr 28 min 9 sec) 
Heartbeat CPU 0 instructions: 63000001 cycles: 99886965 heartbeat IPC: 0.572914 cumulative IPC: 0.548863 (Simulation time: 0 hr 28 min 37 sec) 
Heartbeat CPU 0 instructions: 64000000 cycles: 101637841 heartbeat IPC: 0.571142 cumulative IPC: 0.54926 (Simulation time: 0 hr 29 min 6 sec) 
Heartbeat CPU 0 instructions: 65000002 cycles: 103387738 heartbeat IPC: 0.571463 cumulative IPC: 0.549648 (Simulation time: 0 hr 29 min 34 sec) 
Heartbeat CPU 0 instructions: 66000002 cycles: 105134928 heartbeat IPC: 0.572348 cumulative IPC: 0.550038 (Simulation time: 0 hr 30 min 3 sec) 
Heartbeat CPU 0 instructions: 67000000 cycles: 106881202 heartbeat IPC: 0.572647 cumulative IPC: 0.550419 (Simulation time: 0 hr 30 min 30 sec) 
Heartbeat CPU 0 instructions: 68000000 cycles: 108631585 heartbeat IPC: 0.571304 cumulative IPC: 0.550766 (Simulation time: 0 hr 30 min 57 sec) 
Heartbeat CPU 0 instructions: 69000000 cycles: 110380981 heartbeat IPC: 0.571626 cumulative IPC: 0.551107 (Simulation time: 0 hr 31 min 24 sec) 
Heartbeat CPU 0 instructions: 70000002 cycles: 112130866 heartbeat IPC: 0.571467 cumulative IPC: 0.551434 (Simulation time: 0 hr 31 min 52 sec) 
Heartbeat CPU 0 instructions: 71000001 cycles: 113879689 heartbeat IPC: 0.571813 cumulative IPC: 0.551757 (Simulation time: 0 hr 32 min 20 sec) 
Heartbeat CPU 0 instructions: 72000000 cycles: 115631972 heartbeat IPC: 0.570683 cumulative IPC: 0.552052 (Simulation time: 0 hr 32 min 49 sec) 
Heartbeat CPU 0 instructions: 73000000 cycles: 117381806 heartbeat IPC: 0.571483 cumulative IPC: 0.55235 (Simulation time: 0 hr 33 min 18 sec) 
Heartbeat CPU 0 instructions: 74000000 cycles: 119214024 heartbeat IPC: 0.545787 cumulative IPC: 0.552246 (Simulation time: 0 hr 33 min 46 sec) 
Heartbeat CPU 0 instructions: 75000000 cycles: 121441118 heartbeat IPC: 0.449016 cumulative IPC: 0.5503 (Simulation time: 0 hr 34 min 21 sec) 
Heartbeat CPU 0 instructions: 76000000 cycles: 124035113 heartbeat IPC: 0.385506 cumulative IPC: 0.546758 (Simulation time: 0 hr 34 min 59 sec) 
Heartbeat CPU 0 instructions: 77000000 cycles: 126674685 heartbeat IPC: 0.378849 cumulative IPC: 0.543165 (Simulation time: 0 hr 35 min 35 sec) 
Heartbeat CPU 0 instructions: 78000000 cycles: 129328474 heartbeat IPC: 0.37682 cumulative IPC: 0.539662 (Simulation time: 0 hr 36 min 11 sec) 
Heartbeat CPU 0 instructions: 79000000 cycles: 131966930 heartbeat IPC: 0.37901 cumulative IPC: 0.536367 (Simulation time: 0 hr 36 min 48 sec) 
Heartbeat CPU 0 instructions: 80000000 cycles: 134623754 heartbeat IPC: 0.376389 cumulative IPC: 0.53313 (Simulation time: 0 hr 37 min 27 sec) 
Heartbeat CPU 0 instructions: 81000000 cycles: 137271815 heartbeat IPC: 0.377635 cumulative IPC: 0.530056 (Simulation time: 0 hr 38 min 6 sec) 
Heartbeat CPU 0 instructions: 82000000 cycles: 139912975 heartbeat IPC: 0.378622 cumulative IPC: 0.527128 (Simulation time: 0 hr 38 min 40 sec) 
Heartbeat CPU 0 instructions: 83000000 cycles: 142556817 heartbeat IPC: 0.378237 cumulative IPC: 0.5243 (Simulation time: 0 hr 39 min 17 sec) 
Heartbeat CPU 0 instructions: 84000000 cycles: 145204526 heartbeat IPC: 0.377685 cumulative IPC: 0.521564 (Simulation time: 0 hr 39 min 53 sec) 
Heartbeat CPU 0 instructions: 85000001 cycles: 147219070 heartbeat IPC: 0.496391 cumulative IPC: 0.521212 (Simulation time: 0 hr 40 min 26 sec) 
Heartbeat CPU 0 instructions: 86000000 cycles: 149017097 heartbeat IPC: 0.556165 cumulative IPC: 0.521643 (Simulation time: 0 hr 40 min 58 sec) 
Heartbeat CPU 0 instructions: 87000003 cycles: 150658457 heartbeat IPC: 0.609253 cumulative IPC: 0.522619 (Simulation time: 0 hr 41 min 30 sec) 
Heartbeat CPU 0 instructions: 88000000 cycles: 152182262 heartbeat IPC: 0.65625 cumulative IPC: 0.523987 (Simulation time: 0 hr 42 min 1 sec) 
Heartbeat CPU 0 instructions: 89000001 cycles: 153692806 heartbeat IPC: 0.662014 cumulative IPC: 0.525374 (Simulation time: 0 hr 42 min 32 sec) 
Heartbeat CPU 0 instructions: 90000000 cycles: 155202926 heartbeat IPC: 0.662198 cumulative IPC: 0.526734 (Simulation time: 0 hr 43 min 2 sec) 
Heartbeat CPU 0 instructions: 91000001 cycles: 156712849 heartbeat IPC: 0.662286 cumulative IPC: 0.528069 (Simulation time: 0 hr 43 min 33 sec) 
Heartbeat CPU 0 instructions: 92000000 cycles: 158222957 heartbeat IPC: 0.662204 cumulative IPC: 0.529376 (Simulation time: 0 hr 44 min 3 sec) 
Heartbeat CPU 0 instructions: 93000002 cycles: 159733111 heartbeat IPC: 0.662185 cumulative IPC: 0.530659 (Simulation time: 0 hr 44 min 34 sec) 
Heartbeat CPU 0 instructions: 94000001 cycles: 161243031 heartbeat IPC: 0.662286 cumulative IPC: 0.531917 (Simulation time: 0 hr 45 min 5 sec) 
Heartbeat CPU 0 instructions: 95000000 cycles: 162752955 heartbeat IPC: 0.662284 cumulative IPC: 0.533152 (Simulation time: 0 hr 45 min 34 sec) 
Heartbeat CPU 0 instructions: 96000000 cycles: 164262949 heartbeat IPC: 0.662254 cumulative IPC: 0.534363 (Simulation time: 0 hr 46 min 3 sec) 
Heartbeat CPU 0 instructions: 97000002 cycles: 165772995 heartbeat IPC: 0.662233 cumulative IPC: 0.535552 (Simulation time: 0 hr 46 min 32 sec) 
Heartbeat CPU 0 instructions: 98000001 cycles: 167282917 heartbeat IPC: 0.662285 cumulative IPC: 0.536719 (Simulation time: 0 hr 47 min 1 sec) 
Heartbeat CPU 0 instructions: 99000000 cycles: 168792911 heartbeat IPC: 0.662254 cumulative IPC: 0.537864 (Simulation time: 0 hr 47 min 30 sec) 
Heartbeat CPU 0 instructions: 100000000 cycles: 170302832 heartbeat IPC: 0.662286 cumulative IPC: 0.538989 (Simulation time: 0 hr 47 min 58 sec) 
Heartbeat CPU 0 instructions: 101000000 cycles: 171812877 heartbeat IPC: 0.662232 cumulative IPC: 0.540094 (Simulation time: 0 hr 48 min 26 sec) 
Heartbeat CPU 0 instructions: 102000002 cycles: 173322800 heartbeat IPC: 0.662287 cumulative IPC: 0.541179 (Simulation time: 0 hr 48 min 54 sec) 
Heartbeat CPU 0 instructions: 103000001 cycles: 174832768 heartbeat IPC: 0.662265 cumulative IPC: 0.542245 (Simulation time: 0 hr 49 min 23 sec) 
Heartbeat CPU 0 instructions: 104000000 cycles: 176862307 heartbeat IPC: 0.492722 cumulative IPC: 0.541666 (Simulation time: 0 hr 49 min 56 sec) 
Heartbeat CPU 0 instructions: 105000000 cycles: 179300340 heartbeat IPC: 0.410167 cumulative IPC: 0.539844 (Simulation time: 0 hr 50 min 29 sec) 
Heartbeat CPU 0 instructions: 106000000 cycles: 181927414 heartbeat IPC: 0.380652 cumulative IPC: 0.537503 (Simulation time: 0 hr 51 min 2 sec) 
Heartbeat CPU 0 instructions: 107000000 cycles: 184543668 heartbeat IPC: 0.382226 cumulative IPC: 0.535261 (Simulation time: 0 hr 51 min 33 sec) 
Heartbeat CPU 0 instructions: 108000000 cycles: 187159065 heartbeat IPC: 0.382351 cumulative IPC: 0.533086 (Simulation time: 0 hr 52 min 3 sec) 
Heartbeat CPU 0 instructions: 109000000 cycles: 189786266 heartbeat IPC: 0.380633 cumulative IPC: 0.530938 (Simulation time: 0 hr 52 min 34 sec) 
Heartbeat CPU 0 instructions: 110000000 cycles: 192405085 heartbeat IPC: 0.381852 cumulative IPC: 0.528873 (Simulation time: 0 hr 53 min 4 sec) 
Finished CPU 0 instructions: 100000003 cycles: 189081402 cummulative IPC: 0.528873 (Simulation time: 0 hr 53 min 4 sec) 

ChampSim completed all CPUs

Region of Interest Statistics

CPU 0 cummulative IPC: 0.528873 instructions: 100000003 cycles: 189081402
LLC TOTAL     ACCESS:    4917133  HIT:     803710  MISS:    4113423
LLC LOAD      ACCESS:    1163368  HIT:          0  MISS:    1163368
LLC RFO       ACCESS:         24  HIT:          0  MISS:         24
LLC PREFETCH  ACCESS:    2227043  HIT:          0  MISS:    2227043
LLC WRITEBACK ACCESS:    1526698  HIT:     803710  MISS:     722988
Insertion Distribution: 
	LOAD 0 0 589567 578149 
	RFO 0 0 28 0 
	PREF 0 0 1264222 1235471 
	WRITEBACK 0 0 0 729441 
Total Prefetch Downgrades: 0
