
*** ChampSim Multicore Out-of-Order Simulator ***

Warmup Instructions: 10000000
Simulation Instructions: 100000000
Configuration: 2
Number of CPUs: 1
LLC sets: 2048
LLC ways: 16
Off-chip DRAM Channels: 1 Width: 64-bit Data Rate: 1600 MT/s

CPU 0 runs /datasets/cs240c-wi22-a00-public/data/Assignment2-gz/libquantum_1210B.trace.gz
CPU 0 L1D next line prefetcher
CPU 0 L2C IP-based stride prefetcher
Initialize SRRIP state
Heartbeat CPU 0 instructions: 1000003 cycles: 314916 heartbeat IPC: 3.17546 cumulative IPC: 3.17546 (Simulation time: 0 hr 0 min 18 sec) 
Heartbeat CPU 0 instructions: 2000000 cycles: 630170 heartbeat IPC: 3.17204 cumulative IPC: 3.17375 (Simulation time: 0 hr 0 min 37 sec) 
Heartbeat CPU 0 instructions: 3000001 cycles: 945979 heartbeat IPC: 3.16647 cumulative IPC: 3.17132 (Simulation time: 0 hr 0 min 55 sec) 
Heartbeat CPU 0 instructions: 4000000 cycles: 1260333 heartbeat IPC: 3.18112 cumulative IPC: 3.17376 (Simulation time: 0 hr 1 min 13 sec) 
Heartbeat CPU 0 instructions: 5000001 cycles: 1576818 heartbeat IPC: 3.15971 cumulative IPC: 3.17094 (Simulation time: 0 hr 1 min 31 sec) 
Heartbeat CPU 0 instructions: 6000002 cycles: 1891318 heartbeat IPC: 3.17965 cumulative IPC: 3.17239 (Simulation time: 0 hr 1 min 53 sec) 
Heartbeat CPU 0 instructions: 7000001 cycles: 2206981 heartbeat IPC: 3.16793 cumulative IPC: 3.17175 (Simulation time: 0 hr 2 min 15 sec) 
Heartbeat CPU 0 instructions: 8000000 cycles: 2522385 heartbeat IPC: 3.17053 cumulative IPC: 3.1716 (Simulation time: 0 hr 2 min 35 sec) 
Heartbeat CPU 0 instructions: 9000002 cycles: 2837144 heartbeat IPC: 3.17704 cumulative IPC: 3.1722 (Simulation time: 0 hr 2 min 52 sec) 
Heartbeat CPU 0 instructions: 10000003 cycles: 3153454 heartbeat IPC: 3.16146 cumulative IPC: 3.17113 (Simulation time: 0 hr 3 min 11 sec) 

Warmup complete CPU 0 instructions: 10000003 cycles: 3153454 (Simulation time: 0 hr 3 min 11 sec) 

Heartbeat CPU 0 instructions: 11000001 cycles: 5385693 heartbeat IPC: 0.44798 cumulative IPC: 0.44798 (Simulation time: 0 hr 3 min 42 sec) 
Heartbeat CPU 0 instructions: 12000000 cycles: 7552939 heartbeat IPC: 0.461415 cumulative IPC: 0.454598 (Simulation time: 0 hr 4 min 13 sec) 
Heartbeat CPU 0 instructions: 13000003 cycles: 10146192 heartbeat IPC: 0.385617 cumulative IPC: 0.429017 (Simulation time: 0 hr 4 min 48 sec) 
Heartbeat CPU 0 instructions: 14000001 cycles: 12767626 heartbeat IPC: 0.38147 cumulative IPC: 0.416052 (Simulation time: 0 hr 5 min 20 sec) 
Heartbeat CPU 0 instructions: 15000001 cycles: 15394243 heartbeat IPC: 0.380718 cumulative IPC: 0.40847 (Simulation time: 0 hr 5 min 53 sec) 
Heartbeat CPU 0 instructions: 16000000 cycles: 18048432 heartbeat IPC: 0.376763 cumulative IPC: 0.40282 (Simulation time: 0 hr 6 min 25 sec) 
Heartbeat CPU 0 instructions: 17000000 cycles: 20686162 heartbeat IPC: 0.379114 cumulative IPC: 0.399254 (Simulation time: 0 hr 6 min 58 sec) 
Heartbeat CPU 0 instructions: 18000002 cycles: 23334571 heartbeat IPC: 0.377586 cumulative IPC: 0.39641 (Simulation time: 0 hr 7 min 31 sec) 
Heartbeat CPU 0 instructions: 19000000 cycles: 25987660 heartbeat IPC: 0.376918 cumulative IPC: 0.394145 (Simulation time: 0 hr 8 min 2 sec) 
Heartbeat CPU 0 instructions: 20000000 cycles: 28607213 heartbeat IPC: 0.381745 cumulative IPC: 0.392869 (Simulation time: 0 hr 8 min 34 sec) 
Heartbeat CPU 0 instructions: 21000001 cycles: 31233469 heartbeat IPC: 0.380771 cumulative IPC: 0.391738 (Simulation time: 0 hr 9 min 6 sec) 
Heartbeat CPU 0 instructions: 22000003 cycles: 33856709 heartbeat IPC: 0.381209 cumulative IPC: 0.390838 (Simulation time: 0 hr 9 min 38 sec) 
Heartbeat CPU 0 instructions: 23000000 cycles: 36486559 heartbeat IPC: 0.380249 cumulative IPC: 0.390003 (Simulation time: 0 hr 10 min 11 sec) 
Heartbeat CPU 0 instructions: 24000000 cycles: 39135707 heartbeat IPC: 0.37748 cumulative IPC: 0.389081 (Simulation time: 0 hr 10 min 46 sec) 
Heartbeat CPU 0 instructions: 25000000 cycles: 41785355 heartbeat IPC: 0.377409 cumulative IPC: 0.38828 (Simulation time: 0 hr 11 min 18 sec) 
Heartbeat CPU 0 instructions: 26000000 cycles: 44439011 heartbeat IPC: 0.376839 cumulative IPC: 0.387545 (Simulation time: 0 hr 11 min 50 sec) 
Heartbeat CPU 0 instructions: 27000003 cycles: 47078512 heartbeat IPC: 0.378861 cumulative IPC: 0.387023 (Simulation time: 0 hr 12 min 21 sec) 
Heartbeat CPU 0 instructions: 28000000 cycles: 49599330 heartbeat IPC: 0.396695 cumulative IPC: 0.387548 (Simulation time: 0 hr 12 min 54 sec) 
Heartbeat CPU 0 instructions: 29000002 cycles: 51213211 heartbeat IPC: 0.619626 cumulative IPC: 0.395341 (Simulation time: 0 hr 13 min 26 sec) 
Heartbeat CPU 0 instructions: 30000001 cycles: 52789994 heartbeat IPC: 0.634202 cumulative IPC: 0.402929 (Simulation time: 0 hr 14 min 1 sec) 
Heartbeat CPU 0 instructions: 31000000 cycles: 54297977 heartbeat IPC: 0.663137 cumulative IPC: 0.410601 (Simulation time: 0 hr 14 min 34 sec) 
Heartbeat CPU 0 instructions: 32000000 cycles: 55771045 heartbeat IPC: 0.678855 cumulative IPC: 0.418111 (Simulation time: 0 hr 15 min 4 sec) 
Heartbeat CPU 0 instructions: 33000000 cycles: 57242562 heartbeat IPC: 0.679571 cumulative IPC: 0.425224 (Simulation time: 0 hr 15 min 35 sec) 
Heartbeat CPU 0 instructions: 34000002 cycles: 58713628 heartbeat IPC: 0.67978 cumulative IPC: 0.431964 (Simulation time: 0 hr 16 min 5 sec) 
Heartbeat CPU 0 instructions: 35000001 cycles: 60184492 heartbeat IPC: 0.679872 cumulative IPC: 0.438358 (Simulation time: 0 hr 16 min 36 sec) 
Heartbeat CPU 0 instructions: 36000000 cycles: 61655428 heartbeat IPC: 0.679839 cumulative IPC: 0.444429 (Simulation time: 0 hr 17 min 8 sec) 
Heartbeat CPU 0 instructions: 37000001 cycles: 63126312 heartbeat IPC: 0.679864 cumulative IPC: 0.450204 (Simulation time: 0 hr 17 min 36 sec) 
Heartbeat CPU 0 instructions: 38000002 cycles: 64597268 heartbeat IPC: 0.679831 cumulative IPC: 0.455701 (Simulation time: 0 hr 18 min 7 sec) 
Heartbeat CPU 0 instructions: 39000001 cycles: 66068132 heartbeat IPC: 0.679872 cumulative IPC: 0.460942 (Simulation time: 0 hr 18 min 38 sec) 
Heartbeat CPU 0 instructions: 40000000 cycles: 67539066 heartbeat IPC: 0.679839 cumulative IPC: 0.465943 (Simulation time: 0 hr 19 min 8 sec) 
Heartbeat CPU 0 instructions: 41000000 cycles: 69010044 heartbeat IPC: 0.67982 cumulative IPC: 0.47072 (Simulation time: 0 hr 19 min 39 sec) 
Heartbeat CPU 0 instructions: 42000000 cycles: 70480905 heartbeat IPC: 0.679874 cumulative IPC: 0.475289 (Simulation time: 0 hr 20 min 12 sec) 
Heartbeat CPU 0 instructions: 43000002 cycles: 71951770 heartbeat IPC: 0.679873 cumulative IPC: 0.479663 (Simulation time: 0 hr 20 min 46 sec) 
Heartbeat CPU 0 instructions: 44000000 cycles: 73422704 heartbeat IPC: 0.679839 cumulative IPC: 0.483853 (Simulation time: 0 hr 21 min 19 sec) 
Heartbeat CPU 0 instructions: 45000000 cycles: 74893686 heartbeat IPC: 0.679818 cumulative IPC: 0.487871 (Simulation time: 0 hr 21 min 54 sec) 
Heartbeat CPU 0 instructions: 46000003 cycles: 76364538 heartbeat IPC: 0.67988 cumulative IPC: 0.491729 (Simulation time: 0 hr 22 min 29 sec) 
Heartbeat CPU 0 instructions: 47000002 cycles: 77991509 heartbeat IPC: 0.614639 cumulative IPC: 0.494401 (Simulation time: 0 hr 23 min 0 sec) 
Heartbeat CPU 0 instructions: 48000000 cycles: 80182421 heartbeat IPC: 0.45643 cumulative IPC: 0.493321 (Simulation time: 0 hr 23 min 32 sec) 
Heartbeat CPU 0 instructions: 49000003 cycles: 82427523 heartbeat IPC: 0.445415 cumulative IPC: 0.491964 (Simulation time: 0 hr 24 min 3 sec) 
Heartbeat CPU 0 instructions: 50000003 cycles: 84778455 heartbeat IPC: 0.425363 cumulative IPC: 0.490046 (Simulation time: 0 hr 24 min 35 sec) 
Heartbeat CPU 0 instructions: 51000000 cycles: 87144594 heartbeat IPC: 0.422628 cumulative IPC: 0.488147 (Simulation time: 0 hr 25 min 7 sec) 
Heartbeat CPU 0 instructions: 52000000 cycles: 89518265 heartbeat IPC: 0.421288 cumulative IPC: 0.486309 (Simulation time: 0 hr 25 min 39 sec) 
Heartbeat CPU 0 instructions: 53000003 cycles: 91870849 heartbeat IPC: 0.425066 cumulative IPC: 0.484685 (Simulation time: 0 hr 26 min 11 sec) 
Heartbeat CPU 0 instructions: 54000003 cycles: 94218769 heartbeat IPC: 0.425909 cumulative IPC: 0.48317 (Simulation time: 0 hr 26 min 46 sec) 
Heartbeat CPU 0 instructions: 55000002 cycles: 96577569 heartbeat IPC: 0.423944 cumulative IPC: 0.481674 (Simulation time: 0 hr 27 min 17 sec) 
Heartbeat CPU 0 instructions: 56000000 cycles: 98951676 heartbeat IPC: 0.42121 cumulative IPC: 0.480176 (Simulation time: 0 hr 27 min 48 sec) 
Heartbeat CPU 0 instructions: 57000001 cycles: 101325350 heartbeat IPC: 0.421288 cumulative IPC: 0.478752 (Simulation time: 0 hr 28 min 21 sec) 
Heartbeat CPU 0 instructions: 58000000 cycles: 103690943 heartbeat IPC: 0.422727 cumulative IPC: 0.477434 (Simulation time: 0 hr 28 min 54 sec) 
Heartbeat CPU 0 instructions: 59000000 cycles: 106047124 heartbeat IPC: 0.424416 cumulative IPC: 0.47622 (Simulation time: 0 hr 29 min 31 sec) 
Heartbeat CPU 0 instructions: 60000000 cycles: 108402865 heartbeat IPC: 0.424495 cumulative IPC: 0.475062 (Simulation time: 0 hr 30 min 5 sec) 
Heartbeat CPU 0 instructions: 61000001 cycles: 110762425 heartbeat IPC: 0.423808 cumulative IPC: 0.473938 (Simulation time: 0 hr 30 min 36 sec) 
Heartbeat CPU 0 instructions: 62000000 cycles: 113122785 heartbeat IPC: 0.423664 cumulative IPC: 0.472859 (Simulation time: 0 hr 31 min 8 sec) 
Heartbeat CPU 0 instructions: 63000001 cycles: 115377712 heartbeat IPC: 0.443474 cumulative IPC: 0.472269 (Simulation time: 0 hr 31 min 37 sec) 
Heartbeat CPU 0 instructions: 64000000 cycles: 117555241 heartbeat IPC: 0.459236 cumulative IPC: 0.472021 (Simulation time: 0 hr 32 min 9 sec) 
Heartbeat CPU 0 instructions: 65000000 cycles: 119720373 heartbeat IPC: 0.461866 cumulative IPC: 0.471832 (Simulation time: 0 hr 32 min 41 sec) 
Heartbeat CPU 0 instructions: 66000001 cycles: 121912766 heartbeat IPC: 0.456123 cumulative IPC: 0.471542 (Simulation time: 0 hr 33 min 10 sec) 
Heartbeat CPU 0 instructions: 67000000 cycles: 124059667 heartbeat IPC: 0.465787 cumulative IPC: 0.47144 (Simulation time: 0 hr 33 min 40 sec) 
Heartbeat CPU 0 instructions: 68000000 cycles: 126261221 heartbeat IPC: 0.454225 cumulative IPC: 0.471132 (Simulation time: 0 hr 34 min 11 sec) 
Heartbeat CPU 0 instructions: 69000002 cycles: 128442762 heartbeat IPC: 0.458392 cumulative IPC: 0.47091 (Simulation time: 0 hr 34 min 41 sec) 
Heartbeat CPU 0 instructions: 70000000 cycles: 130619995 heartbeat IPC: 0.459298 cumulative IPC: 0.470712 (Simulation time: 0 hr 35 min 12 sec) 
Heartbeat CPU 0 instructions: 71000000 cycles: 132817735 heartbeat IPC: 0.455013 cumulative IPC: 0.470446 (Simulation time: 0 hr 35 min 42 sec) 
Heartbeat CPU 0 instructions: 72000000 cycles: 134979198 heartbeat IPC: 0.46265 cumulative IPC: 0.470318 (Simulation time: 0 hr 36 min 12 sec) 
Heartbeat CPU 0 instructions: 73000002 cycles: 137183256 heartbeat IPC: 0.453709 cumulative IPC: 0.470045 (Simulation time: 0 hr 36 min 43 sec) 
Heartbeat CPU 0 instructions: 74000002 cycles: 139350628 heartbeat IPC: 0.461388 cumulative IPC: 0.469907 (Simulation time: 0 hr 37 min 13 sec) 
Heartbeat CPU 0 instructions: 75000001 cycles: 141538032 heartbeat IPC: 0.457162 cumulative IPC: 0.469705 (Simulation time: 0 hr 37 min 43 sec) 
Heartbeat CPU 0 instructions: 76000000 cycles: 143714587 heartbeat IPC: 0.459441 cumulative IPC: 0.469547 (Simulation time: 0 hr 38 min 14 sec) 
Heartbeat CPU 0 instructions: 77000000 cycles: 145881814 heartbeat IPC: 0.461419 cumulative IPC: 0.469423 (Simulation time: 0 hr 38 min 44 sec) 
Heartbeat CPU 0 instructions: 78000002 cycles: 148078895 heartbeat IPC: 0.45515 cumulative IPC: 0.469207 (Simulation time: 0 hr 39 min 15 sec) 
Heartbeat CPU 0 instructions: 79000001 cycles: 150237089 heartbeat IPC: 0.46335 cumulative IPC: 0.469121 (Simulation time: 0 hr 39 min 47 sec) 
Heartbeat CPU 0 instructions: 80000000 cycles: 152450086 heartbeat IPC: 0.451875 cumulative IPC: 0.468865 (Simulation time: 0 hr 40 min 16 sec) 
Heartbeat CPU 0 instructions: 81000000 cycles: 154620465 heartbeat IPC: 0.460749 cumulative IPC: 0.468749 (Simulation time: 0 hr 40 min 46 sec) 
Heartbeat CPU 0 instructions: 82000000 cycles: 156806939 heartbeat IPC: 0.457357 cumulative IPC: 0.468587 (Simulation time: 0 hr 41 min 18 sec) 
Heartbeat CPU 0 instructions: 83000001 cycles: 159232347 heartbeat IPC: 0.412302 cumulative IPC: 0.467712 (Simulation time: 0 hr 41 min 51 sec) 
Heartbeat CPU 0 instructions: 84000000 cycles: 161775132 heartbeat IPC: 0.393269 cumulative IPC: 0.466519 (Simulation time: 0 hr 42 min 22 sec) 
Heartbeat CPU 0 instructions: 85000001 cycles: 164315507 heartbeat IPC: 0.393643 cumulative IPC: 0.46537 (Simulation time: 0 hr 42 min 56 sec) 
Heartbeat CPU 0 instructions: 86000001 cycles: 166877920 heartbeat IPC: 0.390257 cumulative IPC: 0.464195 (Simulation time: 0 hr 43 min 29 sec) 
Heartbeat CPU 0 instructions: 87000003 cycles: 169441957 heartbeat IPC: 0.390011 cumulative IPC: 0.463051 (Simulation time: 0 hr 44 min 4 sec) 
Heartbeat CPU 0 instructions: 88000000 cycles: 172004868 heartbeat IPC: 0.39018 cumulative IPC: 0.461945 (Simulation time: 0 hr 44 min 35 sec) 
Heartbeat CPU 0 instructions: 89000001 cycles: 174571365 heartbeat IPC: 0.389637 cumulative IPC: 0.460862 (Simulation time: 0 hr 45 min 7 sec) 
Heartbeat CPU 0 instructions: 90000000 cycles: 177127600 heartbeat IPC: 0.3912 cumulative IPC: 0.459838 (Simulation time: 0 hr 45 min 38 sec) 
Heartbeat CPU 0 instructions: 91000002 cycles: 179670914 heartbeat IPC: 0.393189 cumulative IPC: 0.458878 (Simulation time: 0 hr 46 min 12 sec) 
Heartbeat CPU 0 instructions: 92000000 cycles: 182208286 heartbeat IPC: 0.394108 cumulative IPC: 0.45796 (Simulation time: 0 hr 46 min 43 sec) 
Heartbeat CPU 0 instructions: 93000003 cycles: 184756266 heartbeat IPC: 0.392469 cumulative IPC: 0.457041 (Simulation time: 0 hr 47 min 13 sec) 
Heartbeat CPU 0 instructions: 94000000 cycles: 187311293 heartbeat IPC: 0.391384 cumulative IPC: 0.45613 (Simulation time: 0 hr 47 min 44 sec) 
Heartbeat CPU 0 instructions: 95000002 cycles: 189874521 heartbeat IPC: 0.390134 cumulative IPC: 0.455224 (Simulation time: 0 hr 48 min 13 sec) 
Heartbeat CPU 0 instructions: 96000000 cycles: 192447406 heartbeat IPC: 0.388668 cumulative IPC: 0.45432 (Simulation time: 0 hr 48 min 43 sec) 
Heartbeat CPU 0 instructions: 97000001 cycles: 195007171 heartbeat IPC: 0.390661 cumulative IPC: 0.45347 (Simulation time: 0 hr 49 min 14 sec) 
Heartbeat CPU 0 instructions: 98000002 cycles: 197568035 heartbeat IPC: 0.390494 cumulative IPC: 0.452641 (Simulation time: 0 hr 49 min 44 sec) 
Heartbeat CPU 0 instructions: 99000002 cycles: 199279857 heartbeat IPC: 0.584173 cumulative IPC: 0.453789 (Simulation time: 0 hr 50 min 14 sec) 
Heartbeat CPU 0 instructions: 100000000 cycles: 200825922 heartbeat IPC: 0.646802 cumulative IPC: 0.455299 (Simulation time: 0 hr 50 min 44 sec) 
Heartbeat CPU 0 instructions: 101000000 cycles: 202307807 heartbeat IPC: 0.674816 cumulative IPC: 0.456932 (Simulation time: 0 hr 51 min 11 sec) 
Heartbeat CPU 0 instructions: 102000003 cycles: 203739618 heartbeat IPC: 0.698418 cumulative IPC: 0.458656 (Simulation time: 0 hr 51 min 39 sec) 
Heartbeat CPU 0 instructions: 103000002 cycles: 205166697 heartbeat IPC: 0.700731 cumulative IPC: 0.460366 (Simulation time: 0 hr 52 min 6 sec) 
Heartbeat CPU 0 instructions: 104000000 cycles: 206593361 heartbeat IPC: 0.700934 cumulative IPC: 0.462053 (Simulation time: 0 hr 52 min 31 sec) 
Heartbeat CPU 0 instructions: 105000000 cycles: 208020075 heartbeat IPC: 0.700911 cumulative IPC: 0.463716 (Simulation time: 0 hr 52 min 56 sec) 
Heartbeat CPU 0 instructions: 106000001 cycles: 209446668 heartbeat IPC: 0.700971 cumulative IPC: 0.465357 (Simulation time: 0 hr 53 min 20 sec) 
Heartbeat CPU 0 instructions: 107000000 cycles: 210873264 heartbeat IPC: 0.700969 cumulative IPC: 0.466975 (Simulation time: 0 hr 53 min 44 sec) 
Heartbeat CPU 0 instructions: 108000000 cycles: 212299929 heartbeat IPC: 0.700935 cumulative IPC: 0.468571 (Simulation time: 0 hr 54 min 9 sec) 
Heartbeat CPU 0 instructions: 109000001 cycles: 213726645 heartbeat IPC: 0.700911 cumulative IPC: 0.470145 (Simulation time: 0 hr 54 min 33 sec) 
Heartbeat CPU 0 instructions: 110000000 cycles: 215153237 heartbeat IPC: 0.700971 cumulative IPC: 0.471699 (Simulation time: 0 hr 54 min 56 sec) 
Finished CPU 0 instructions: 100000001 cycles: 211999787 cummulative IPC: 0.471699 (Simulation time: 0 hr 54 min 56 sec) 

ChampSim completed all CPUs

Region of Interest Statistics

CPU 0 cummulative IPC: 0.471699 instructions: 100000001 cycles: 211999787
LLC TOTAL     ACCESS:    4047262  HIT:     558706  MISS:    3488556
LLC LOAD      ACCESS:     834762  HIT:          0  MISS:     834762
LLC RFO       ACCESS:         24  HIT:          0  MISS:         24
LLC PREFETCH  ACCESS:    2172040  HIT:          0  MISS:    2172040
LLC WRITEBACK ACCESS:    1040436  HIT:     558706  MISS:     481730
Insertion Distribution: 
	LOAD 0 0 427435 411436 
	RFO 0 0 24 0 
	PREF 0 0 1233932 1196789 
	WRITEBACK 0 0 0 535443 
Total Prefetch Downgrades: 0
