
*** ChampSim Multicore Out-of-Order Simulator ***

Warmup Instructions: 10000000
Simulation Instructions: 100000000
Configuration: 2
Number of CPUs: 1
LLC sets: 2048
LLC ways: 16
Off-chip DRAM Channels: 1 Width: 64-bit Data Rate: 1600 MT/s

CPU 0 runs /datasets/cs240c-wi22-a00-public/data/Assignment2-gz/perlbench_135B.trace.gz
CPU 0 L1D next line prefetcher
CPU 0 L2C IP-based stride prefetcher
Initialize SRRIP state
Heartbeat CPU 0 instructions: 1000000 cycles: 600033 heartbeat IPC: 1.66657 cumulative IPC: 1.66657 (Simulation time: 0 hr 0 min 38 sec) 
Heartbeat CPU 0 instructions: 2000000 cycles: 1209304 heartbeat IPC: 1.64131 cumulative IPC: 1.65384 (Simulation time: 0 hr 1 min 19 sec) 
Heartbeat CPU 0 instructions: 3000000 cycles: 1832837 heartbeat IPC: 1.60376 cumulative IPC: 1.63681 (Simulation time: 0 hr 2 min 7 sec) 
Heartbeat CPU 0 instructions: 4000000 cycles: 2492645 heartbeat IPC: 1.51559 cumulative IPC: 1.60472 (Simulation time: 0 hr 2 min 50 sec) 
Heartbeat CPU 0 instructions: 5000001 cycles: 3079308 heartbeat IPC: 1.70456 cumulative IPC: 1.62374 (Simulation time: 0 hr 3 min 35 sec) 
Heartbeat CPU 0 instructions: 6000002 cycles: 3681733 heartbeat IPC: 1.65996 cumulative IPC: 1.62967 (Simulation time: 0 hr 4 min 21 sec) 
Heartbeat CPU 0 instructions: 7000001 cycles: 4282494 heartbeat IPC: 1.66455 cumulative IPC: 1.63456 (Simulation time: 0 hr 5 min 9 sec) 
Heartbeat CPU 0 instructions: 8000000 cycles: 4892986 heartbeat IPC: 1.63802 cumulative IPC: 1.63499 (Simulation time: 0 hr 5 min 59 sec) 
Heartbeat CPU 0 instructions: 9000001 cycles: 5534100 heartbeat IPC: 1.55979 cumulative IPC: 1.62628 (Simulation time: 0 hr 6 min 52 sec) 
Heartbeat CPU 0 instructions: 10000000 cycles: 6192788 heartbeat IPC: 1.51817 cumulative IPC: 1.61478 (Simulation time: 0 hr 7 min 33 sec) 

Warmup complete CPU 0 instructions: 10000004 cycles: 6192789 (Simulation time: 0 hr 7 min 33 sec) 

Heartbeat CPU 0 instructions: 11000003 cycles: 8935518 heartbeat IPC: 0.364601 cumulative IPC: 0.3646 (Simulation time: 0 hr 8 min 32 sec) 
Heartbeat CPU 0 instructions: 12000000 cycles: 11273136 heartbeat IPC: 0.427785 cumulative IPC: 0.393673 (Simulation time: 0 hr 9 min 30 sec) 
Heartbeat CPU 0 instructions: 13000000 cycles: 13824529 heartbeat IPC: 0.391943 cumulative IPC: 0.393095 (Simulation time: 0 hr 10 min 37 sec) 
Heartbeat CPU 0 instructions: 14000000 cycles: 16827492 heartbeat IPC: 0.333004 cumulative IPC: 0.376127 (Simulation time: 0 hr 11 min 32 sec) 
Heartbeat CPU 0 instructions: 15000003 cycles: 19500825 heartbeat IPC: 0.374066 cumulative IPC: 0.375713 (Simulation time: 0 hr 12 min 30 sec) 
Heartbeat CPU 0 instructions: 16000000 cycles: 22132051 heartbeat IPC: 0.38005 cumulative IPC: 0.376429 (Simulation time: 0 hr 13 min 28 sec) 
Heartbeat CPU 0 instructions: 17000000 cycles: 24831478 heartbeat IPC: 0.370449 cumulative IPC: 0.375563 (Simulation time: 0 hr 14 min 25 sec) 
Heartbeat CPU 0 instructions: 18000000 cycles: 27510257 heartbeat IPC: 0.373304 cumulative IPC: 0.375279 (Simulation time: 0 hr 15 min 17 sec) 
Heartbeat CPU 0 instructions: 19000003 cycles: 30140021 heartbeat IPC: 0.380263 cumulative IPC: 0.375826 (Simulation time: 0 hr 16 min 18 sec) 
Heartbeat CPU 0 instructions: 20000000 cycles: 32776677 heartbeat IPC: 0.379267 cumulative IPC: 0.376168 (Simulation time: 0 hr 17 min 6 sec) 
Heartbeat CPU 0 instructions: 21000000 cycles: 35400638 heartbeat IPC: 0.381103 cumulative IPC: 0.376611 (Simulation time: 0 hr 18 min 4 sec) 
Heartbeat CPU 0 instructions: 22000002 cycles: 38025851 heartbeat IPC: 0.380922 cumulative IPC: 0.376967 (Simulation time: 0 hr 18 min 58 sec) 
Heartbeat CPU 0 instructions: 23000003 cycles: 40683644 heartbeat IPC: 0.376252 cumulative IPC: 0.376911 (Simulation time: 0 hr 20 min 5 sec) 
Heartbeat CPU 0 instructions: 24000000 cycles: 42781541 heartbeat IPC: 0.476666 cumulative IPC: 0.382631 (Simulation time: 0 hr 21 min 0 sec) 
Heartbeat CPU 0 instructions: 25000000 cycles: 45387756 heartbeat IPC: 0.383698 cumulative IPC: 0.382702 (Simulation time: 0 hr 22 min 8 sec) 
Heartbeat CPU 0 instructions: 26000001 cycles: 47940743 heartbeat IPC: 0.391698 cumulative IPC: 0.383252 (Simulation time: 0 hr 23 min 10 sec) 
Heartbeat CPU 0 instructions: 27000000 cycles: 50603029 heartbeat IPC: 0.375617 cumulative IPC: 0.382794 (Simulation time: 0 hr 24 min 11 sec) 
Heartbeat CPU 0 instructions: 28000000 cycles: 53242753 heartbeat IPC: 0.378827 cumulative IPC: 0.382572 (Simulation time: 0 hr 24 min 58 sec) 
Heartbeat CPU 0 instructions: 29000000 cycles: 55868723 heartbeat IPC: 0.380812 cumulative IPC: 0.382479 (Simulation time: 0 hr 25 min 52 sec) 
Heartbeat CPU 0 instructions: 30000000 cycles: 58581172 heartbeat IPC: 0.368671 cumulative IPC: 0.381764 (Simulation time: 0 hr 26 min 47 sec) 
Heartbeat CPU 0 instructions: 31000001 cycles: 61217980 heartbeat IPC: 0.379247 cumulative IPC: 0.381643 (Simulation time: 0 hr 27 min 40 sec) 
Heartbeat CPU 0 instructions: 32000000 cycles: 63869061 heartbeat IPC: 0.377204 cumulative IPC: 0.381439 (Simulation time: 0 hr 28 min 38 sec) 
Heartbeat CPU 0 instructions: 33000000 cycles: 66496046 heartbeat IPC: 0.380665 cumulative IPC: 0.381406 (Simulation time: 0 hr 29 min 36 sec) 
Heartbeat CPU 0 instructions: 34000001 cycles: 69105798 heartbeat IPC: 0.383179 cumulative IPC: 0.381479 (Simulation time: 0 hr 30 min 29 sec) 
Heartbeat CPU 0 instructions: 35000003 cycles: 71755365 heartbeat IPC: 0.377421 cumulative IPC: 0.381315 (Simulation time: 0 hr 31 min 25 sec) 
Heartbeat CPU 0 instructions: 36000000 cycles: 74056464 heartbeat IPC: 0.434574 cumulative IPC: 0.383121 (Simulation time: 0 hr 32 min 28 sec) 
Heartbeat CPU 0 instructions: 37000000 cycles: 76344906 heartbeat IPC: 0.436979 cumulative IPC: 0.384878 (Simulation time: 0 hr 33 min 27 sec) 
Heartbeat CPU 0 instructions: 38000000 cycles: 78432453 heartbeat IPC: 0.479031 cumulative IPC: 0.387599 (Simulation time: 0 hr 34 min 22 sec) 
Heartbeat CPU 0 instructions: 39000000 cycles: 80727291 heartbeat IPC: 0.435761 cumulative IPC: 0.389082 (Simulation time: 0 hr 35 min 19 sec) 
Heartbeat CPU 0 instructions: 40000000 cycles: 82680674 heartbeat IPC: 0.511932 cumulative IPC: 0.392219 (Simulation time: 0 hr 36 min 3 sec) 
Heartbeat CPU 0 instructions: 41000001 cycles: 84761881 heartbeat IPC: 0.480491 cumulative IPC: 0.394557 (Simulation time: 0 hr 36 min 48 sec) 
Heartbeat CPU 0 instructions: 42000003 cycles: 87383299 heartbeat IPC: 0.381474 cumulative IPC: 0.394135 (Simulation time: 0 hr 37 min 52 sec) 
Heartbeat CPU 0 instructions: 43000001 cycles: 89946151 heartbeat IPC: 0.39019 cumulative IPC: 0.394014 (Simulation time: 0 hr 38 min 47 sec) 
Heartbeat CPU 0 instructions: 44000000 cycles: 92240415 heartbeat IPC: 0.435869 cumulative IPC: 0.39513 (Simulation time: 0 hr 39 min 40 sec) 
Heartbeat CPU 0 instructions: 45000003 cycles: 94873253 heartbeat IPC: 0.379819 cumulative IPC: 0.394675 (Simulation time: 0 hr 40 min 40 sec) 
Heartbeat CPU 0 instructions: 46000003 cycles: 97543059 heartbeat IPC: 0.374559 cumulative IPC: 0.394087 (Simulation time: 0 hr 41 min 34 sec) 
Heartbeat CPU 0 instructions: 47000000 cycles: 100169223 heartbeat IPC: 0.380782 cumulative IPC: 0.393716 (Simulation time: 0 hr 42 min 27 sec) 
Heartbeat CPU 0 instructions: 48000000 cycles: 102782559 heartbeat IPC: 0.382653 cumulative IPC: 0.393416 (Simulation time: 0 hr 43 min 18 sec) 
Heartbeat CPU 0 instructions: 49000000 cycles: 105449486 heartbeat IPC: 0.374963 cumulative IPC: 0.392921 (Simulation time: 0 hr 44 min 9 sec) 
Heartbeat CPU 0 instructions: 50000001 cycles: 108074881 heartbeat IPC: 0.380895 cumulative IPC: 0.392611 (Simulation time: 0 hr 45 min 1 sec) 
Heartbeat CPU 0 instructions: 51000000 cycles: 110693262 heartbeat IPC: 0.381915 cumulative IPC: 0.392343 (Simulation time: 0 hr 45 min 46 sec) 
Heartbeat CPU 0 instructions: 52000000 cycles: 113303907 heartbeat IPC: 0.383047 cumulative IPC: 0.392116 (Simulation time: 0 hr 46 min 33 sec) 
Heartbeat CPU 0 instructions: 53000000 cycles: 115887822 heartbeat IPC: 0.38701 cumulative IPC: 0.391996 (Simulation time: 0 hr 47 min 17 sec) 
Heartbeat CPU 0 instructions: 54000001 cycles: 118526460 heartbeat IPC: 0.378984 cumulative IPC: 0.39169 (Simulation time: 0 hr 47 min 58 sec) 
Heartbeat CPU 0 instructions: 55000001 cycles: 120972442 heartbeat IPC: 0.408834 cumulative IPC: 0.392056 (Simulation time: 0 hr 48 min 54 sec) 
Heartbeat CPU 0 instructions: 56000000 cycles: 123096179 heartbeat IPC: 0.470868 cumulative IPC: 0.393487 (Simulation time: 0 hr 49 min 40 sec) 
Heartbeat CPU 0 instructions: 57000000 cycles: 125297278 heartbeat IPC: 0.454318 cumulative IPC: 0.394611 (Simulation time: 0 hr 50 min 25 sec) 
Heartbeat CPU 0 instructions: 58000002 cycles: 127245067 heartbeat IPC: 0.513404 cumulative IPC: 0.396523 (Simulation time: 0 hr 51 min 2 sec) 
Heartbeat CPU 0 instructions: 59000003 cycles: 129363759 heartbeat IPC: 0.47199 cumulative IPC: 0.397821 (Simulation time: 0 hr 51 min 46 sec) 
Heartbeat CPU 0 instructions: 60000000 cycles: 132332636 heartbeat IPC: 0.336827 cumulative IPC: 0.396385 (Simulation time: 0 hr 52 min 25 sec) 
Heartbeat CPU 0 instructions: 61000000 cycles: 134746630 heartbeat IPC: 0.414251 cumulative IPC: 0.396721 (Simulation time: 0 hr 53 min 6 sec) 
Heartbeat CPU 0 instructions: 62000001 cycles: 137536485 heartbeat IPC: 0.358442 cumulative IPC: 0.395908 (Simulation time: 0 hr 53 min 42 sec) 
Heartbeat CPU 0 instructions: 63000000 cycles: 140486191 heartbeat IPC: 0.339016 cumulative IPC: 0.394658 (Simulation time: 0 hr 54 min 22 sec) 
Heartbeat CPU 0 instructions: 64000000 cycles: 143394340 heartbeat IPC: 0.343861 cumulative IPC: 0.393582 (Simulation time: 0 hr 54 min 58 sec) 
Heartbeat CPU 0 instructions: 65000001 cycles: 146286791 heartbeat IPC: 0.345728 cumulative IPC: 0.392594 (Simulation time: 0 hr 55 min 27 sec) 
Heartbeat CPU 0 instructions: 66000001 cycles: 149156661 heartbeat IPC: 0.348448 cumulative IPC: 0.391707 (Simulation time: 0 hr 55 min 55 sec) 
Heartbeat CPU 0 instructions: 67000001 cycles: 151884968 heartbeat IPC: 0.366528 cumulative IPC: 0.391236 (Simulation time: 0 hr 56 min 29 sec) 
Heartbeat CPU 0 instructions: 68000000 cycles: 154619007 heartbeat IPC: 0.365759 cumulative IPC: 0.390767 (Simulation time: 0 hr 57 min 4 sec) 
Heartbeat CPU 0 instructions: 69000002 cycles: 157573188 heartbeat IPC: 0.338504 cumulative IPC: 0.389747 (Simulation time: 0 hr 57 min 35 sec) 
Heartbeat CPU 0 instructions: 70000003 cycles: 159380405 heartbeat IPC: 0.553338 cumulative IPC: 0.391677 (Simulation time: 0 hr 58 min 1 sec) 
Heartbeat CPU 0 instructions: 71000000 cycles: 161300150 heartbeat IPC: 0.520901 cumulative IPC: 0.393276 (Simulation time: 0 hr 58 min 27 sec) 
Heartbeat CPU 0 instructions: 72000000 cycles: 163288148 heartbeat IPC: 0.503019 cumulative IPC: 0.394665 (Simulation time: 0 hr 58 min 50 sec) 
Heartbeat CPU 0 instructions: 73000000 cycles: 165555909 heartbeat IPC: 0.440964 cumulative IPC: 0.395324 (Simulation time: 0 hr 59 min 13 sec) 
Heartbeat CPU 0 instructions: 74000000 cycles: 167474455 heartbeat IPC: 0.521228 cumulative IPC: 0.396821 (Simulation time: 0 hr 59 min 34 sec) 
Heartbeat CPU 0 instructions: 75000003 cycles: 169712214 heartbeat IPC: 0.446877 cumulative IPC: 0.397506 (Simulation time: 0 hr 59 min 52 sec) 
Heartbeat CPU 0 instructions: 76000000 cycles: 172449586 heartbeat IPC: 0.365313 cumulative IPC: 0.396976 (Simulation time: 1 hr 0 min 11 sec) 
Heartbeat CPU 0 instructions: 77000000 cycles: 175140673 heartbeat IPC: 0.371597 cumulative IPC: 0.396572 (Simulation time: 1 hr 0 min 29 sec) 
Heartbeat CPU 0 instructions: 78000000 cycles: 178090819 heartbeat IPC: 0.338966 cumulative IPC: 0.395583 (Simulation time: 1 hr 0 min 49 sec) 
Heartbeat CPU 0 instructions: 79000000 cycles: 179947077 heartbeat IPC: 0.538718 cumulative IPC: 0.397112 (Simulation time: 1 hr 1 min 5 sec) 
Heartbeat CPU 0 instructions: 80000000 cycles: 181732878 heartbeat IPC: 0.559973 cumulative IPC: 0.398769 (Simulation time: 1 hr 1 min 17 sec) 
Heartbeat CPU 0 instructions: 81000000 cycles: 183654274 heartbeat IPC: 0.520455 cumulative IPC: 0.400087 (Simulation time: 1 hr 1 min 31 sec) 
Heartbeat CPU 0 instructions: 82000000 cycles: 185571813 heartbeat IPC: 0.521502 cumulative IPC: 0.401385 (Simulation time: 1 hr 1 min 44 sec) 
Heartbeat CPU 0 instructions: 83000000 cycles: 187897364 heartbeat IPC: 0.430006 cumulative IPC: 0.401751 (Simulation time: 1 hr 1 min 59 sec) 
Heartbeat CPU 0 instructions: 84000000 cycles: 189848295 heartbeat IPC: 0.512576 cumulative IPC: 0.402928 (Simulation time: 1 hr 2 min 13 sec) 
Heartbeat CPU 0 instructions: 85000000 cycles: 191769419 heartbeat IPC: 0.520529 cumulative IPC: 0.404146 (Simulation time: 1 hr 2 min 24 sec) 
Heartbeat CPU 0 instructions: 86000002 cycles: 193687948 heartbeat IPC: 0.521234 cumulative IPC: 0.405344 (Simulation time: 1 hr 2 min 36 sec) 
Heartbeat CPU 0 instructions: 87000003 cycles: 195852681 heartbeat IPC: 0.461951 cumulative IPC: 0.40599 (Simulation time: 1 hr 2 min 46 sec) 
Heartbeat CPU 0 instructions: 88000000 cycles: 198618171 heartbeat IPC: 0.361598 cumulative IPC: 0.405352 (Simulation time: 1 hr 2 min 56 sec) 
Heartbeat CPU 0 instructions: 89000003 cycles: 201183102 heartbeat IPC: 0.389875 cumulative IPC: 0.405148 (Simulation time: 1 hr 3 min 7 sec) 
Heartbeat CPU 0 instructions: 90000001 cycles: 204056167 heartbeat IPC: 0.34806 cumulative IPC: 0.404319 (Simulation time: 1 hr 3 min 15 sec) 
Heartbeat CPU 0 instructions: 91000000 cycles: 206534260 heartbeat IPC: 0.403536 cumulative IPC: 0.40431 (Simulation time: 1 hr 3 min 22 sec) 
Heartbeat CPU 0 instructions: 92000000 cycles: 208984482 heartbeat IPC: 0.408126 cumulative IPC: 0.404356 (Simulation time: 1 hr 3 min 29 sec) 
Heartbeat CPU 0 instructions: 93000000 cycles: 211675814 heartbeat IPC: 0.371563 cumulative IPC: 0.403926 (Simulation time: 1 hr 3 min 36 sec) 
Heartbeat CPU 0 instructions: 94000001 cycles: 214333863 heartbeat IPC: 0.376216 cumulative IPC: 0.403572 (Simulation time: 1 hr 3 min 44 sec) 
Heartbeat CPU 0 instructions: 95000000 cycles: 217178784 heartbeat IPC: 0.351503 cumulative IPC: 0.40287 (Simulation time: 1 hr 3 min 50 sec) 
Heartbeat CPU 0 instructions: 96000000 cycles: 220239598 heartbeat IPC: 0.32671 cumulative IPC: 0.401781 (Simulation time: 1 hr 3 min 56 sec) 
Heartbeat CPU 0 instructions: 97000001 cycles: 223202862 heartbeat IPC: 0.337466 cumulative IPC: 0.400903 (Simulation time: 1 hr 4 min 2 sec) 
Heartbeat CPU 0 instructions: 98000000 cycles: 225863471 heartbeat IPC: 0.375853 cumulative IPC: 0.4006 (Simulation time: 1 hr 4 min 8 sec) 
Heartbeat CPU 0 instructions: 99000000 cycles: 228461780 heartbeat IPC: 0.384866 cumulative IPC: 0.400416 (Simulation time: 1 hr 4 min 13 sec) 
Heartbeat CPU 0 instructions: 100000000 cycles: 231084102 heartbeat IPC: 0.381341 cumulative IPC: 0.400193 (Simulation time: 1 hr 4 min 19 sec) 
Heartbeat CPU 0 instructions: 101000001 cycles: 233685384 heartbeat IPC: 0.384426 cumulative IPC: 0.400013 (Simulation time: 1 hr 4 min 25 sec) 
Heartbeat CPU 0 instructions: 102000000 cycles: 236315113 heartbeat IPC: 0.380267 cumulative IPC: 0.399787 (Simulation time: 1 hr 4 min 31 sec) 
Heartbeat CPU 0 instructions: 103000000 cycles: 238963323 heartbeat IPC: 0.377614 cumulative IPC: 0.399535 (Simulation time: 1 hr 4 min 37 sec) 
Heartbeat CPU 0 instructions: 104000000 cycles: 241690490 heartbeat IPC: 0.366681 cumulative IPC: 0.399155 (Simulation time: 1 hr 4 min 42 sec) 
Heartbeat CPU 0 instructions: 105000001 cycles: 244294627 heartbeat IPC: 0.384005 cumulative IPC: 0.398989 (Simulation time: 1 hr 4 min 46 sec) 
Heartbeat CPU 0 instructions: 106000001 cycles: 246912336 heartbeat IPC: 0.382013 cumulative IPC: 0.398804 (Simulation time: 1 hr 4 min 51 sec) 
Heartbeat CPU 0 instructions: 107000000 cycles: 249527010 heartbeat IPC: 0.382456 cumulative IPC: 0.398629 (Simulation time: 1 hr 4 min 55 sec) 
Heartbeat CPU 0 instructions: 108000000 cycles: 252137930 heartbeat IPC: 0.383007 cumulative IPC: 0.398463 (Simulation time: 1 hr 5 min 0 sec) 
Heartbeat CPU 0 instructions: 109000001 cycles: 254711386 heartbeat IPC: 0.388583 cumulative IPC: 0.398361 (Simulation time: 1 hr 5 min 5 sec) 
Heartbeat CPU 0 instructions: 110000003 cycles: 256865607 heartbeat IPC: 0.464206 cumulative IPC: 0.398926 (Simulation time: 1 hr 5 min 9 sec) 
Finished CPU 0 instructions: 100000003 cycles: 250672819 cummulative IPC: 0.398926 (Simulation time: 1 hr 5 min 9 sec) 

ChampSim completed all CPUs

Region of Interest Statistics

CPU 0 cummulative IPC: 0.398926 instructions: 100000003 cycles: 250672819
LLC TOTAL     ACCESS:     635557  HIT:     583632  MISS:      51925
LLC LOAD      ACCESS:     295080  HIT:     283979  MISS:      11101
LLC RFO       ACCESS:      30363  HIT:      25731  MISS:       4632
LLC PREFETCH  ACCESS:     206832  HIT:     171560  MISS:      35272
LLC WRITEBACK ACCESS:     103282  HIT:     102362  MISS:        920
Insertion Distribution: 
	LOAD 5010 0 19893 373 
	RFO 218 0 5741 437 
	PREF 0 398 38881 8877 
	WRITEBACK 0 0 0 1228 
Total Prefetch Downgrades: 3517
