
*** ChampSim Multicore Out-of-Order Simulator ***

Warmup Instructions: 10000000
Simulation Instructions: 100000000
Configuration: 2
Number of CPUs: 1
LLC sets: 2048
LLC ways: 16
Off-chip DRAM Channels: 1 Width: 64-bit Data Rate: 1600 MT/s

CPU 0 runs /datasets/cs240c-wi22-a00-public/data/Assignment2-gz/sphinx3_1339B.trace.gz
CPU 0 L1D next line prefetcher
CPU 0 L2C IP-based stride prefetcher
Initialize SRRIP state
Heartbeat CPU 0 instructions: 1000000 cycles: 339022 heartbeat IPC: 2.94966 cumulative IPC: 2.94966 (Simulation time: 0 hr 0 min 28 sec) 
Heartbeat CPU 0 instructions: 2000001 cycles: 693417 heartbeat IPC: 2.82171 cumulative IPC: 2.88427 (Simulation time: 0 hr 0 min 55 sec) 
Heartbeat CPU 0 instructions: 3000000 cycles: 1084463 heartbeat IPC: 2.55724 cumulative IPC: 2.76635 (Simulation time: 0 hr 1 min 25 sec) 
Heartbeat CPU 0 instructions: 4000000 cycles: 1529987 heartbeat IPC: 2.24455 cumulative IPC: 2.6144 (Simulation time: 0 hr 1 min 54 sec) 
Heartbeat CPU 0 instructions: 5000003 cycles: 1869003 heartbeat IPC: 2.94972 cumulative IPC: 2.67522 (Simulation time: 0 hr 2 min 22 sec) 
Heartbeat CPU 0 instructions: 6000002 cycles: 2253197 heartbeat IPC: 2.60285 cumulative IPC: 2.66288 (Simulation time: 0 hr 2 min 51 sec) 
Heartbeat CPU 0 instructions: 7000001 cycles: 2717016 heartbeat IPC: 2.15601 cumulative IPC: 2.57636 (Simulation time: 0 hr 3 min 19 sec) 
Heartbeat CPU 0 instructions: 8000000 cycles: 3055889 heartbeat IPC: 2.95096 cumulative IPC: 2.6179 (Simulation time: 0 hr 3 min 46 sec) 
Heartbeat CPU 0 instructions: 9000003 cycles: 3412492 heartbeat IPC: 2.80425 cumulative IPC: 2.63737 (Simulation time: 0 hr 4 min 14 sec) 
Heartbeat CPU 0 instructions: 10000001 cycles: 3799208 heartbeat IPC: 2.58587 cumulative IPC: 2.63213 (Simulation time: 0 hr 4 min 42 sec) 

Warmup complete CPU 0 instructions: 10000001 cycles: 3799208 (Simulation time: 0 hr 4 min 42 sec) 

Heartbeat CPU 0 instructions: 11000000 cycles: 4679359 heartbeat IPC: 1.13617 cumulative IPC: 1.13617 (Simulation time: 0 hr 5 min 17 sec) 
Heartbeat CPU 0 instructions: 12000000 cycles: 5504021 heartbeat IPC: 1.21262 cumulative IPC: 1.17315 (Simulation time: 0 hr 5 min 48 sec) 
Heartbeat CPU 0 instructions: 13000000 cycles: 6862057 heartbeat IPC: 0.736358 cumulative IPC: 0.97948 (Simulation time: 0 hr 6 min 22 sec) 
Heartbeat CPU 0 instructions: 14000000 cycles: 7757478 heartbeat IPC: 1.11679 cumulative IPC: 1.01054 (Simulation time: 0 hr 6 min 53 sec) 
Heartbeat CPU 0 instructions: 15000001 cycles: 8588798 heartbeat IPC: 1.20291 cumulative IPC: 1.04393 (Simulation time: 0 hr 7 min 26 sec) 
Heartbeat CPU 0 instructions: 16000000 cycles: 9679556 heartbeat IPC: 0.916793 cumulative IPC: 1.02035 (Simulation time: 0 hr 7 min 58 sec) 
Heartbeat CPU 0 instructions: 17000001 cycles: 11062563 heartbeat IPC: 0.723063 cumulative IPC: 0.963742 (Simulation time: 0 hr 8 min 30 sec) 
Heartbeat CPU 0 instructions: 18000003 cycles: 12137215 heartbeat IPC: 0.930536 cumulative IPC: 0.959462 (Simulation time: 0 hr 9 min 3 sec) 
Heartbeat CPU 0 instructions: 19000002 cycles: 12983683 heartbeat IPC: 1.18138 cumulative IPC: 0.979915 (Simulation time: 0 hr 9 min 35 sec) 
Heartbeat CPU 0 instructions: 20000000 cycles: 13817318 heartbeat IPC: 1.19956 cumulative IPC: 0.998192 (Simulation time: 0 hr 10 min 6 sec) 
Heartbeat CPU 0 instructions: 21000000 cycles: 15071754 heartbeat IPC: 0.797171 cumulative IPC: 0.975822 (Simulation time: 0 hr 10 min 40 sec) 
Heartbeat CPU 0 instructions: 22000000 cycles: 16096149 heartbeat IPC: 0.976186 cumulative IPC: 0.975852 (Simulation time: 0 hr 11 min 12 sec) 
Heartbeat CPU 0 instructions: 23000002 cycles: 16924312 heartbeat IPC: 1.20749 cumulative IPC: 0.990468 (Simulation time: 0 hr 11 min 42 sec) 
Heartbeat CPU 0 instructions: 24000000 cycles: 17859195 heartbeat IPC: 1.06965 cumulative IPC: 0.995733 (Simulation time: 0 hr 12 min 12 sec) 
Heartbeat CPU 0 instructions: 25000001 cycles: 18842057 heartbeat IPC: 1.01744 cumulative IPC: 0.997152 (Simulation time: 0 hr 12 min 42 sec) 
Heartbeat CPU 0 instructions: 26000003 cycles: 19629153 heartbeat IPC: 1.2705 cumulative IPC: 1.01074 (Simulation time: 0 hr 13 min 12 sec) 
Heartbeat CPU 0 instructions: 27000000 cycles: 20423309 heartbeat IPC: 1.25919 cumulative IPC: 1.02261 (Simulation time: 0 hr 13 min 44 sec) 
Heartbeat CPU 0 instructions: 28000000 cycles: 21410430 heartbeat IPC: 1.01305 cumulative IPC: 1.02208 (Simulation time: 0 hr 14 min 16 sec) 
Heartbeat CPU 0 instructions: 29000003 cycles: 22202994 heartbeat IPC: 1.26173 cumulative IPC: 1.0324 (Simulation time: 0 hr 14 min 46 sec) 
Heartbeat CPU 0 instructions: 30000003 cycles: 22975414 heartbeat IPC: 1.29463 cumulative IPC: 1.04296 (Simulation time: 0 hr 15 min 15 sec) 
Heartbeat CPU 0 instructions: 31000003 cycles: 23897580 heartbeat IPC: 1.0844 cumulative IPC: 1.04486 (Simulation time: 0 hr 15 min 45 sec) 
Heartbeat CPU 0 instructions: 32000000 cycles: 24731505 heartbeat IPC: 1.19914 cumulative IPC: 1.05101 (Simulation time: 0 hr 16 min 16 sec) 
Heartbeat CPU 0 instructions: 33000001 cycles: 25499930 heartbeat IPC: 1.30136 cumulative IPC: 1.05987 (Simulation time: 0 hr 16 min 46 sec) 
Heartbeat CPU 0 instructions: 34000001 cycles: 26911866 heartbeat IPC: 0.708247 cumulative IPC: 1.03839 (Simulation time: 0 hr 17 min 18 sec) 
Heartbeat CPU 0 instructions: 35000002 cycles: 27841984 heartbeat IPC: 1.07513 cumulative IPC: 1.03981 (Simulation time: 0 hr 17 min 48 sec) 
Heartbeat CPU 0 instructions: 36000000 cycles: 28666826 heartbeat IPC: 1.21235 cumulative IPC: 1.04554 (Simulation time: 0 hr 18 min 20 sec) 
Heartbeat CPU 0 instructions: 37000003 cycles: 29685054 heartbeat IPC: 0.982101 cumulative IPC: 1.04304 (Simulation time: 0 hr 18 min 54 sec) 
Heartbeat CPU 0 instructions: 38000000 cycles: 30920402 heartbeat IPC: 0.809486 cumulative IPC: 1.0324 (Simulation time: 0 hr 19 min 24 sec) 
Heartbeat CPU 0 instructions: 39000003 cycles: 31779071 heartbeat IPC: 1.1646 cumulative IPC: 1.03646 (Simulation time: 0 hr 19 min 54 sec) 
Heartbeat CPU 0 instructions: 40000000 cycles: 32592781 heartbeat IPC: 1.22894 cumulative IPC: 1.0419 (Simulation time: 0 hr 20 min 27 sec) 
Heartbeat CPU 0 instructions: 41000000 cycles: 33891693 heartbeat IPC: 0.769875 cumulative IPC: 1.03016 (Simulation time: 0 hr 20 min 59 sec) 
Heartbeat CPU 0 instructions: 42000002 cycles: 34776614 heartbeat IPC: 1.13005 cumulative IPC: 1.03301 (Simulation time: 0 hr 21 min 28 sec) 
Heartbeat CPU 0 instructions: 43000001 cycles: 35594280 heartbeat IPC: 1.22299 cumulative IPC: 1.0379 (Simulation time: 0 hr 21 min 55 sec) 
Heartbeat CPU 0 instructions: 44000000 cycles: 36665305 heartbeat IPC: 0.933684 cumulative IPC: 1.0345 (Simulation time: 0 hr 22 min 24 sec) 
Heartbeat CPU 0 instructions: 45000002 cycles: 37704051 heartbeat IPC: 0.962701 cumulative IPC: 1.0323 (Simulation time: 0 hr 22 min 54 sec) 
Heartbeat CPU 0 instructions: 46000003 cycles: 38498200 heartbeat IPC: 1.25921 cumulative IPC: 1.03749 (Simulation time: 0 hr 23 min 24 sec) 
Heartbeat CPU 0 instructions: 47000001 cycles: 39303037 heartbeat IPC: 1.24249 cumulative IPC: 1.04214 (Simulation time: 0 hr 23 min 55 sec) 
Heartbeat CPU 0 instructions: 48000000 cycles: 40327236 heartbeat IPC: 0.976372 cumulative IPC: 1.0403 (Simulation time: 0 hr 24 min 26 sec) 
Heartbeat CPU 0 instructions: 49000000 cycles: 41147697 heartbeat IPC: 1.21883 cumulative IPC: 1.04422 (Simulation time: 0 hr 24 min 57 sec) 
Heartbeat CPU 0 instructions: 50000000 cycles: 41920215 heartbeat IPC: 1.29447 cumulative IPC: 1.04929 (Simulation time: 0 hr 25 min 27 sec) 
Heartbeat CPU 0 instructions: 51000001 cycles: 43158149 heartbeat IPC: 0.807798 cumulative IPC: 1.04169 (Simulation time: 0 hr 25 min 59 sec) 
Heartbeat CPU 0 instructions: 52000000 cycles: 43979454 heartbeat IPC: 1.21757 cumulative IPC: 1.04529 (Simulation time: 0 hr 26 min 29 sec) 
Heartbeat CPU 0 instructions: 53000002 cycles: 44768637 heartbeat IPC: 1.26714 cumulative IPC: 1.04956 (Simulation time: 0 hr 26 min 58 sec) 
Heartbeat CPU 0 instructions: 54000003 cycles: 45927450 heartbeat IPC: 0.862953 cumulative IPC: 1.04443 (Simulation time: 0 hr 27 min 31 sec) 
Heartbeat CPU 0 instructions: 55000001 cycles: 46840853 heartbeat IPC: 1.0948 cumulative IPC: 1.0455 (Simulation time: 0 hr 27 min 59 sec) 
Heartbeat CPU 0 instructions: 56000000 cycles: 47641493 heartbeat IPC: 1.249 cumulative IPC: 1.04922 (Simulation time: 0 hr 28 min 31 sec) 
Heartbeat CPU 0 instructions: 57000000 cycles: 48586045 heartbeat IPC: 1.0587 cumulative IPC: 1.04942 (Simulation time: 0 hr 29 min 5 sec) 
Heartbeat CPU 0 instructions: 58000000 cycles: 49702083 heartbeat IPC: 0.896027 cumulative IPC: 1.04569 (Simulation time: 0 hr 29 min 36 sec) 
Heartbeat CPU 0 instructions: 59000002 cycles: 50502841 heartbeat IPC: 1.24882 cumulative IPC: 1.04917 (Simulation time: 0 hr 30 min 7 sec) 
Heartbeat CPU 0 instructions: 60000000 cycles: 51285938 heartbeat IPC: 1.27698 cumulative IPC: 1.05293 (Simulation time: 0 hr 30 min 36 sec) 
Heartbeat CPU 0 instructions: 61000000 cycles: 52659686 heartbeat IPC: 0.727936 cumulative IPC: 1.04379 (Simulation time: 0 hr 31 min 7 sec) 
Heartbeat CPU 0 instructions: 62000002 cycles: 53803358 heartbeat IPC: 0.874378 cumulative IPC: 1.03991 (Simulation time: 0 hr 31 min 39 sec) 
Heartbeat CPU 0 instructions: 63000001 cycles: 54636089 heartbeat IPC: 1.20087 cumulative IPC: 1.04255 (Simulation time: 0 hr 32 min 8 sec) 
Heartbeat CPU 0 instructions: 64000000 cycles: 55442300 heartbeat IPC: 1.24037 cumulative IPC: 1.04564 (Simulation time: 0 hr 32 min 39 sec) 
Heartbeat CPU 0 instructions: 65000000 cycles: 56512839 heartbeat IPC: 0.934109 cumulative IPC: 1.04337 (Simulation time: 0 hr 33 min 11 sec) 
Heartbeat CPU 0 instructions: 66000001 cycles: 57516752 heartbeat IPC: 0.996103 cumulative IPC: 1.04249 (Simulation time: 0 hr 33 min 40 sec) 
Heartbeat CPU 0 instructions: 67000003 cycles: 58307805 heartbeat IPC: 1.26414 cumulative IPC: 1.04571 (Simulation time: 0 hr 34 min 13 sec) 
Heartbeat CPU 0 instructions: 68000000 cycles: 59156435 heartbeat IPC: 1.17837 cumulative IPC: 1.04774 (Simulation time: 0 hr 34 min 43 sec) 
Heartbeat CPU 0 instructions: 69000003 cycles: 60312241 heartbeat IPC: 0.8652 cumulative IPC: 1.04401 (Simulation time: 0 hr 35 min 15 sec) 
Heartbeat CPU 0 instructions: 70000001 cycles: 61158434 heartbeat IPC: 1.18176 cumulative IPC: 1.04604 (Simulation time: 0 hr 35 min 45 sec) 
Heartbeat CPU 0 instructions: 71000001 cycles: 61946562 heartbeat IPC: 1.26883 cumulative IPC: 1.04906 (Simulation time: 0 hr 36 min 15 sec) 
Heartbeat CPU 0 instructions: 72000000 cycles: 63173047 heartbeat IPC: 0.815337 cumulative IPC: 1.04423 (Simulation time: 0 hr 36 min 46 sec) 
Heartbeat CPU 0 instructions: 73000001 cycles: 64003870 heartbeat IPC: 1.20363 cumulative IPC: 1.04643 (Simulation time: 0 hr 37 min 16 sec) 
Heartbeat CPU 0 instructions: 74000000 cycles: 64793885 heartbeat IPC: 1.2658 cumulative IPC: 1.04927 (Simulation time: 0 hr 37 min 46 sec) 
Heartbeat CPU 0 instructions: 75000003 cycles: 65878635 heartbeat IPC: 0.921874 cumulative IPC: 1.04705 (Simulation time: 0 hr 38 min 18 sec) 
Heartbeat CPU 0 instructions: 76000000 cycles: 66827371 heartbeat IPC: 1.05403 cumulative IPC: 1.04715 (Simulation time: 0 hr 38 min 49 sec) 
Heartbeat CPU 0 instructions: 77000002 cycles: 67618024 heartbeat IPC: 1.26478 cumulative IPC: 1.04985 (Simulation time: 0 hr 39 min 20 sec) 
Heartbeat CPU 0 instructions: 78000002 cycles: 68492374 heartbeat IPC: 1.14371 cumulative IPC: 1.05112 (Simulation time: 0 hr 39 min 55 sec) 
Heartbeat CPU 0 instructions: 79000001 cycles: 69587154 heartbeat IPC: 0.913425 cumulative IPC: 1.04882 (Simulation time: 0 hr 40 min 27 sec) 
Heartbeat CPU 0 instructions: 80000000 cycles: 70413053 heartbeat IPC: 1.2108 cumulative IPC: 1.05083 (Simulation time: 0 hr 40 min 58 sec) 
Heartbeat CPU 0 instructions: 81000001 cycles: 71196354 heartbeat IPC: 1.27665 cumulative IPC: 1.05346 (Simulation time: 0 hr 41 min 30 sec) 
Heartbeat CPU 0 instructions: 82000000 cycles: 72379669 heartbeat IPC: 0.845083 cumulative IPC: 1.04986 (Simulation time: 0 hr 42 min 4 sec) 
Heartbeat CPU 0 instructions: 83000001 cycles: 73216622 heartbeat IPC: 1.19481 cumulative IPC: 1.05161 (Simulation time: 0 hr 42 min 36 sec) 
Heartbeat CPU 0 instructions: 84000000 cycles: 74000661 heartbeat IPC: 1.27545 cumulative IPC: 1.05411 (Simulation time: 0 hr 43 min 5 sec) 
Heartbeat CPU 0 instructions: 85000002 cycles: 75138088 heartbeat IPC: 0.879179 cumulative IPC: 1.05132 (Simulation time: 0 hr 43 min 35 sec) 
Heartbeat CPU 0 instructions: 86000003 cycles: 76037769 heartbeat IPC: 1.11151 cumulative IPC: 1.05207 (Simulation time: 0 hr 44 min 6 sec) 
Heartbeat CPU 0 instructions: 87000001 cycles: 76823943 heartbeat IPC: 1.27198 cumulative IPC: 1.05444 (Simulation time: 0 hr 44 min 35 sec) 
Heartbeat CPU 0 instructions: 88000000 cycles: 77805697 heartbeat IPC: 1.01858 cumulative IPC: 1.05396 (Simulation time: 0 hr 45 min 6 sec) 
Heartbeat CPU 0 instructions: 89000000 cycles: 78839546 heartbeat IPC: 0.967259 cumulative IPC: 1.05277 (Simulation time: 0 hr 45 min 36 sec) 
Heartbeat CPU 0 instructions: 90000003 cycles: 79618182 heartbeat IPC: 1.2843 cumulative IPC: 1.05514 (Simulation time: 0 hr 46 min 4 sec) 
Heartbeat CPU 0 instructions: 91000000 cycles: 80404236 heartbeat IPC: 1.27217 cumulative IPC: 1.05737 (Simulation time: 0 hr 46 min 32 sec) 
Heartbeat CPU 0 instructions: 92000000 cycles: 81614862 heartbeat IPC: 0.826019 cumulative IPC: 1.05377 (Simulation time: 0 hr 47 min 1 sec) 
Heartbeat CPU 0 instructions: 93000001 cycles: 82439679 heartbeat IPC: 1.21239 cumulative IPC: 1.05544 (Simulation time: 0 hr 47 min 29 sec) 
Heartbeat CPU 0 instructions: 94000001 cycles: 83217722 heartbeat IPC: 1.28528 cumulative IPC: 1.05769 (Simulation time: 0 hr 47 min 57 sec) 
Heartbeat CPU 0 instructions: 95000002 cycles: 84435912 heartbeat IPC: 0.820891 cumulative IPC: 1.05411 (Simulation time: 0 hr 48 min 27 sec) 
Heartbeat CPU 0 instructions: 96000000 cycles: 85290892 heartbeat IPC: 1.16962 cumulative IPC: 1.05532 (Simulation time: 0 hr 48 min 54 sec) 
Heartbeat CPU 0 instructions: 97000002 cycles: 86076269 heartbeat IPC: 1.27328 cumulative IPC: 1.0574 (Simulation time: 0 hr 49 min 20 sec) 
Heartbeat CPU 0 instructions: 98000000 cycles: 87152214 heartbeat IPC: 0.929414 cumulative IPC: 1.05575 (Simulation time: 0 hr 49 min 49 sec) 
Heartbeat CPU 0 instructions: 99000003 cycles: 88276804 heartbeat IPC: 0.889216 cumulative IPC: 1.05353 (Simulation time: 0 hr 50 min 17 sec) 
Heartbeat CPU 0 instructions: 100000000 cycles: 89084390 heartbeat IPC: 1.23825 cumulative IPC: 1.05528 (Simulation time: 0 hr 50 min 43 sec) 
Heartbeat CPU 0 instructions: 101000000 cycles: 89881637 heartbeat IPC: 1.25432 cumulative IPC: 1.05713 (Simulation time: 0 hr 51 min 9 sec) 
Heartbeat CPU 0 instructions: 102000001 cycles: 91395940 heartbeat IPC: 0.66037 cumulative IPC: 1.05027 (Simulation time: 0 hr 51 min 36 sec) 
Heartbeat CPU 0 instructions: 103000000 cycles: 92681233 heartbeat IPC: 0.778032 cumulative IPC: 1.04633 (Simulation time: 0 hr 52 min 4 sec) 
Heartbeat CPU 0 instructions: 104000000 cycles: 93639693 heartbeat IPC: 1.04334 cumulative IPC: 1.0463 (Simulation time: 0 hr 52 min 28 sec) 
Heartbeat CPU 0 instructions: 105000003 cycles: 94453532 heartbeat IPC: 1.22875 cumulative IPC: 1.04794 (Simulation time: 0 hr 52 min 51 sec) 
Heartbeat CPU 0 instructions: 106000000 cycles: 95306278 heartbeat IPC: 1.17268 cumulative IPC: 1.0491 (Simulation time: 0 hr 53 min 14 sec) 
Heartbeat CPU 0 instructions: 107000001 cycles: 96861726 heartbeat IPC: 0.642902 cumulative IPC: 1.04231 (Simulation time: 0 hr 53 min 39 sec) 
Heartbeat CPU 0 instructions: 108000000 cycles: 97782550 heartbeat IPC: 1.08598 cumulative IPC: 1.04274 (Simulation time: 0 hr 54 min 0 sec) 
Heartbeat CPU 0 instructions: 109000000 cycles: 98600906 heartbeat IPC: 1.22196 cumulative IPC: 1.04429 (Simulation time: 0 hr 54 min 22 sec) 
Heartbeat CPU 0 instructions: 110000003 cycles: 99741818 heartbeat IPC: 0.876494 cumulative IPC: 1.04229 (Simulation time: 0 hr 54 min 44 sec) 
Finished CPU 0 instructions: 100000002 cycles: 95942610 cummulative IPC: 1.04229 (Simulation time: 0 hr 54 min 44 sec) 

ChampSim completed all CPUs

Region of Interest Statistics

CPU 0 cummulative IPC: 1.04229 instructions: 100000002 cycles: 95942610
LLC TOTAL     ACCESS:    1573938  HIT:     816921  MISS:     757017
LLC LOAD      ACCESS:     202390  HIT:     154594  MISS:      47796
LLC RFO       ACCESS:     111437  HIT:     107259  MISS:       4178
LLC PREFETCH  ACCESS:    1126955  HIT:     424384  MISS:     702571
LLC WRITEBACK ACCESS:     133156  HIT:     130684  MISS:       2472
Insertion Distribution: 
	LOAD 3850 0 45236 10878 
	RFO 472 0 6952 1414 
	PREF 0 3340 448274 349318 
	WRITEBACK 0 0 0 3097 
Total Prefetch Downgrades: 7373
