
*** ChampSim Multicore Out-of-Order Simulator ***

Warmup Instructions: 10000000
Simulation Instructions: 100000000
Configuration: 2
Number of CPUs: 1
LLC sets: 2048
LLC ways: 16
Off-chip DRAM Channels: 1 Width: 64-bit Data Rate: 1600 MT/s

CPU 0 runs /datasets/cs240c-wi22-a00-public/data/Assignment2-gz/leslie3d_1186B.trace.gz
CPU 0 L1D next line prefetcher
CPU 0 L2C IP-based stride prefetcher
Initialize SRRIP state
Heartbeat CPU 0 instructions: 1000002 cycles: 564509 heartbeat IPC: 1.77145 cumulative IPC: 1.77145 (Simulation time: 0 hr 0 min 49 sec) 
Heartbeat CPU 0 instructions: 2000000 cycles: 1215817 heartbeat IPC: 1.53537 cumulative IPC: 1.64498 (Simulation time: 0 hr 1 min 45 sec) 
Heartbeat CPU 0 instructions: 3000000 cycles: 1867540 heartbeat IPC: 1.53439 cumulative IPC: 1.60639 (Simulation time: 0 hr 2 min 29 sec) 
Heartbeat CPU 0 instructions: 4000000 cycles: 2473081 heartbeat IPC: 1.65142 cumulative IPC: 1.61742 (Simulation time: 0 hr 3 min 7 sec) 
Heartbeat CPU 0 instructions: 5000000 cycles: 3083408 heartbeat IPC: 1.63847 cumulative IPC: 1.62158 (Simulation time: 0 hr 3 min 58 sec) 
Heartbeat CPU 0 instructions: 6000000 cycles: 3735115 heartbeat IPC: 1.53443 cumulative IPC: 1.60638 (Simulation time: 0 hr 4 min 52 sec) 
Heartbeat CPU 0 instructions: 7000001 cycles: 4386334 heartbeat IPC: 1.53558 cumulative IPC: 1.59587 (Simulation time: 0 hr 5 min 42 sec) 
Heartbeat CPU 0 instructions: 8000000 cycles: 4950916 heartbeat IPC: 1.77122 cumulative IPC: 1.61586 (Simulation time: 0 hr 6 min 33 sec) 
Heartbeat CPU 0 instructions: 9000003 cycles: 5602206 heartbeat IPC: 1.53542 cumulative IPC: 1.60651 (Simulation time: 0 hr 7 min 18 sec) 
Heartbeat CPU 0 instructions: 10000001 cycles: 6253352 heartbeat IPC: 1.53575 cumulative IPC: 1.59914 (Simulation time: 0 hr 8 min 6 sec) 

Warmup complete CPU 0 instructions: 10000001 cycles: 6253352 (Simulation time: 0 hr 8 min 6 sec) 

Heartbeat CPU 0 instructions: 11000001 cycles: 7718995 heartbeat IPC: 0.682294 cumulative IPC: 0.682294 (Simulation time: 0 hr 8 min 52 sec) 
Heartbeat CPU 0 instructions: 12000000 cycles: 8975564 heartbeat IPC: 0.795817 cumulative IPC: 0.734696 (Simulation time: 0 hr 9 min 46 sec) 
Heartbeat CPU 0 instructions: 13000000 cycles: 10210032 heartbeat IPC: 0.810066 cumulative IPC: 0.758211 (Simulation time: 0 hr 10 min 46 sec) 
Heartbeat CPU 0 instructions: 14000000 cycles: 11487286 heartbeat IPC: 0.78293 cumulative IPC: 0.764243 (Simulation time: 0 hr 11 min 37 sec) 
Heartbeat CPU 0 instructions: 15000002 cycles: 12933914 heartbeat IPC: 0.691264 cumulative IPC: 0.74844 (Simulation time: 0 hr 12 min 30 sec) 
Heartbeat CPU 0 instructions: 16000000 cycles: 14164947 heartbeat IPC: 0.812324 cumulative IPC: 0.75838 (Simulation time: 0 hr 13 min 23 sec) 
Heartbeat CPU 0 instructions: 17000000 cycles: 15397725 heartbeat IPC: 0.811176 cumulative IPC: 0.765498 (Simulation time: 0 hr 14 min 16 sec) 
Heartbeat CPU 0 instructions: 18000001 cycles: 16841539 heartbeat IPC: 0.692611 cumulative IPC: 0.755559 (Simulation time: 0 hr 15 min 4 sec) 
Heartbeat CPU 0 instructions: 19000003 cycles: 18100198 heartbeat IPC: 0.794498 cumulative IPC: 0.759696 (Simulation time: 0 hr 15 min 51 sec) 
Heartbeat CPU 0 instructions: 20000000 cycles: 19355757 heartbeat IPC: 0.796456 cumulative IPC: 0.763219 (Simulation time: 0 hr 16 min 42 sec) 
Heartbeat CPU 0 instructions: 21000003 cycles: 20692537 heartbeat IPC: 0.748069 cumulative IPC: 0.761816 (Simulation time: 0 hr 17 min 31 sec) 
Heartbeat CPU 0 instructions: 22000003 cycles: 22021550 heartbeat IPC: 0.752438 cumulative IPC: 0.761026 (Simulation time: 0 hr 18 min 18 sec) 
Heartbeat CPU 0 instructions: 23000002 cycles: 23249543 heartbeat IPC: 0.814336 cumulative IPC: 0.764877 (Simulation time: 0 hr 19 min 12 sec) 
Heartbeat CPU 0 instructions: 24000000 cycles: 24479127 heartbeat IPC: 0.813282 cumulative IPC: 0.768143 (Simulation time: 0 hr 20 min 8 sec) 
Heartbeat CPU 0 instructions: 25000000 cycles: 25898296 heartbeat IPC: 0.704638 cumulative IPC: 0.763555 (Simulation time: 0 hr 21 min 7 sec) 
Heartbeat CPU 0 instructions: 26000000 cycles: 27134104 heartbeat IPC: 0.809187 cumulative IPC: 0.766256 (Simulation time: 0 hr 22 min 1 sec) 
Heartbeat CPU 0 instructions: 27000000 cycles: 28378359 heartbeat IPC: 0.803694 cumulative IPC: 0.768361 (Simulation time: 0 hr 22 min 51 sec) 
Heartbeat CPU 0 instructions: 28000000 cycles: 29781825 heartbeat IPC: 0.712522 cumulative IPC: 0.765031 (Simulation time: 0 hr 23 min 42 sec) 
Heartbeat CPU 0 instructions: 29000002 cycles: 31020522 heartbeat IPC: 0.807302 cumulative IPC: 0.767145 (Simulation time: 0 hr 24 min 36 sec) 
Heartbeat CPU 0 instructions: 30000002 cycles: 32249907 heartbeat IPC: 0.813415 cumulative IPC: 0.769333 (Simulation time: 0 hr 25 min 30 sec) 
Heartbeat CPU 0 instructions: 31000002 cycles: 33514457 heartbeat IPC: 0.790795 cumulative IPC: 0.770328 (Simulation time: 0 hr 26 min 25 sec) 
Heartbeat CPU 0 instructions: 32000000 cycles: 34877041 heartbeat IPC: 0.733898 cumulative IPC: 0.768594 (Simulation time: 0 hr 27 min 22 sec) 
Heartbeat CPU 0 instructions: 33000000 cycles: 36099022 heartbeat IPC: 0.818343 cumulative IPC: 0.770631 (Simulation time: 0 hr 28 min 19 sec) 
Heartbeat CPU 0 instructions: 34000000 cycles: 37331738 heartbeat IPC: 0.811217 cumulative IPC: 0.772241 (Simulation time: 0 hr 29 min 17 sec) 
Heartbeat CPU 0 instructions: 35000000 cycles: 38730775 heartbeat IPC: 0.714777 cumulative IPC: 0.769765 (Simulation time: 0 hr 30 min 9 sec) 
Heartbeat CPU 0 instructions: 36000000 cycles: 39965436 heartbeat IPC: 0.809939 cumulative IPC: 0.771237 (Simulation time: 0 hr 30 min 59 sec) 
Heartbeat CPU 0 instructions: 37000003 cycles: 41213196 heartbeat IPC: 0.801439 cumulative IPC: 0.772315 (Simulation time: 0 hr 31 min 51 sec) 
Heartbeat CPU 0 instructions: 38000003 cycles: 42555034 heartbeat IPC: 0.745246 cumulative IPC: 0.771314 (Simulation time: 0 hr 32 min 36 sec) 
Heartbeat CPU 0 instructions: 39000001 cycles: 43847413 heartbeat IPC: 0.773765 cumulative IPC: 0.771398 (Simulation time: 0 hr 33 min 28 sec) 
Heartbeat CPU 0 instructions: 40000000 cycles: 45090892 heartbeat IPC: 0.804195 cumulative IPC: 0.772448 (Simulation time: 0 hr 34 min 23 sec) 
Heartbeat CPU 0 instructions: 41000000 cycles: 46306816 heartbeat IPC: 0.82242 cumulative IPC: 0.773965 (Simulation time: 0 hr 35 min 19 sec) 
Heartbeat CPU 0 instructions: 42000000 cycles: 47704600 heartbeat IPC: 0.715418 cumulative IPC: 0.771991 (Simulation time: 0 hr 36 min 12 sec) 
Heartbeat CPU 0 instructions: 43000002 cycles: 48909704 heartbeat IPC: 0.829806 cumulative IPC: 0.773625 (Simulation time: 0 hr 36 min 54 sec) 
Heartbeat CPU 0 instructions: 44000000 cycles: 50144941 heartbeat IPC: 0.80956 cumulative IPC: 0.774636 (Simulation time: 0 hr 37 min 39 sec) 
Heartbeat CPU 0 instructions: 45000001 cycles: 51600338 heartbeat IPC: 0.687098 cumulative IPC: 0.771826 (Simulation time: 0 hr 38 min 16 sec) 
Heartbeat CPU 0 instructions: 46000001 cycles: 53263426 heartbeat IPC: 0.601291 cumulative IPC: 0.765793 (Simulation time: 0 hr 39 min 13 sec) 
Heartbeat CPU 0 instructions: 47000002 cycles: 55103285 heartbeat IPC: 0.54352 cumulative IPC: 0.757422 (Simulation time: 0 hr 40 min 10 sec) 
Heartbeat CPU 0 instructions: 48000000 cycles: 56846517 heartbeat IPC: 0.573646 cumulative IPC: 0.75109 (Simulation time: 0 hr 41 min 7 sec) 
Heartbeat CPU 0 instructions: 49000002 cycles: 58597090 heartbeat IPC: 0.571243 cumulative IPC: 0.745075 (Simulation time: 0 hr 42 min 7 sec) 
Heartbeat CPU 0 instructions: 50000002 cycles: 60283935 heartbeat IPC: 0.592823 cumulative IPC: 0.740321 (Simulation time: 0 hr 43 min 5 sec) 
Heartbeat CPU 0 instructions: 51000002 cycles: 62032613 heartbeat IPC: 0.571861 cumulative IPC: 0.73504 (Simulation time: 0 hr 44 min 2 sec) 
Heartbeat CPU 0 instructions: 52000000 cycles: 63700852 heartbeat IPC: 0.599433 cumulative IPC: 0.731102 (Simulation time: 0 hr 44 min 55 sec) 
Heartbeat CPU 0 instructions: 53000000 cycles: 65466006 heartbeat IPC: 0.566523 cumulative IPC: 0.726196 (Simulation time: 0 hr 45 min 40 sec) 
Heartbeat CPU 0 instructions: 54000003 cycles: 67129114 heartbeat IPC: 0.601286 cumulative IPC: 0.722784 (Simulation time: 0 hr 46 min 26 sec) 
Heartbeat CPU 0 instructions: 55000001 cycles: 69092216 heartbeat IPC: 0.509397 cumulative IPC: 0.716117 (Simulation time: 0 hr 47 min 5 sec) 
Heartbeat CPU 0 instructions: 56000000 cycles: 71500699 heartbeat IPC: 0.415199 cumulative IPC: 0.70501 (Simulation time: 0 hr 47 min 54 sec) 
Heartbeat CPU 0 instructions: 57000001 cycles: 73867317 heartbeat IPC: 0.422544 cumulative IPC: 0.695123 (Simulation time: 0 hr 48 min 46 sec) 
Heartbeat CPU 0 instructions: 58000001 cycles: 76304840 heartbeat IPC: 0.410253 cumulative IPC: 0.68521 (Simulation time: 0 hr 49 min 36 sec) 
Heartbeat CPU 0 instructions: 59000003 cycles: 78699031 heartbeat IPC: 0.417678 cumulative IPC: 0.676369 (Simulation time: 0 hr 50 min 23 sec) 
Heartbeat CPU 0 instructions: 60000000 cycles: 81049018 heartbeat IPC: 0.425533 cumulative IPC: 0.668488 (Simulation time: 0 hr 51 min 21 sec) 
Heartbeat CPU 0 instructions: 61000003 cycles: 83381010 heartbeat IPC: 0.428819 cumulative IPC: 0.661241 (Simulation time: 0 hr 52 min 10 sec) 
Heartbeat CPU 0 instructions: 62000001 cycles: 85712859 heartbeat IPC: 0.428843 cumulative IPC: 0.654421 (Simulation time: 0 hr 52 min 52 sec) 
Heartbeat CPU 0 instructions: 63000000 cycles: 87689726 heartbeat IPC: 0.50585 cumulative IPC: 0.650815 (Simulation time: 0 hr 53 min 31 sec) 
Heartbeat CPU 0 instructions: 64000000 cycles: 88909493 heartbeat IPC: 0.819829 cumulative IPC: 0.653309 (Simulation time: 0 hr 54 min 2 sec) 
Heartbeat CPU 0 instructions: 65000000 cycles: 90160873 heartbeat IPC: 0.799118 cumulative IPC: 0.655484 (Simulation time: 0 hr 54 min 38 sec) 
Heartbeat CPU 0 instructions: 66000002 cycles: 91403244 heartbeat IPC: 0.804914 cumulative IPC: 0.657664 (Simulation time: 0 hr 55 min 16 sec) 
Heartbeat CPU 0 instructions: 67000001 cycles: 92642961 heartbeat IPC: 0.806635 cumulative IPC: 0.659802 (Simulation time: 0 hr 55 min 46 sec) 
Heartbeat CPU 0 instructions: 68000000 cycles: 93951299 heartbeat IPC: 0.764328 cumulative IPC: 0.661361 (Simulation time: 0 hr 56 min 12 sec) 
Heartbeat CPU 0 instructions: 69000000 cycles: 95185980 heartbeat IPC: 0.809926 cumulative IPC: 0.663424 (Simulation time: 0 hr 56 min 37 sec) 
Heartbeat CPU 0 instructions: 70000000 cycles: 96471598 heartbeat IPC: 0.777836 cumulative IPC: 0.665054 (Simulation time: 0 hr 57 min 3 sec) 
Heartbeat CPU 0 instructions: 71000003 cycles: 97714979 heartbeat IPC: 0.804261 cumulative IPC: 0.666946 (Simulation time: 0 hr 57 min 32 sec) 
Heartbeat CPU 0 instructions: 72000000 cycles: 98982424 heartbeat IPC: 0.788987 cumulative IPC: 0.668614 (Simulation time: 0 hr 58 min 3 sec) 
Heartbeat CPU 0 instructions: 73000000 cycles: 100251436 heartbeat IPC: 0.788015 cumulative IPC: 0.670226 (Simulation time: 0 hr 58 min 30 sec) 
Heartbeat CPU 0 instructions: 74000000 cycles: 101495269 heartbeat IPC: 0.803966 cumulative IPC: 0.671973 (Simulation time: 0 hr 58 min 54 sec) 
Heartbeat CPU 0 instructions: 75000003 cycles: 102787011 heartbeat IPC: 0.774151 cumulative IPC: 0.67334 (Simulation time: 0 hr 59 min 20 sec) 
Heartbeat CPU 0 instructions: 76000000 cycles: 104030226 heartbeat IPC: 0.804364 cumulative IPC: 0.675006 (Simulation time: 0 hr 59 min 43 sec) 
Heartbeat CPU 0 instructions: 77000000 cycles: 105313628 heartbeat IPC: 0.779179 cumulative IPC: 0.676356 (Simulation time: 1 hr 0 min 8 sec) 
Heartbeat CPU 0 instructions: 78000001 cycles: 106574396 heartbeat IPC: 0.793168 cumulative IPC: 0.677824 (Simulation time: 1 hr 0 min 29 sec) 
Heartbeat CPU 0 instructions: 79000001 cycles: 107858605 heartbeat IPC: 0.778689 cumulative IPC: 0.679099 (Simulation time: 1 hr 0 min 49 sec) 
Heartbeat CPU 0 instructions: 80000000 cycles: 109128490 heartbeat IPC: 0.787472 cumulative IPC: 0.680436 (Simulation time: 1 hr 1 min 8 sec) 
Heartbeat CPU 0 instructions: 81000000 cycles: 110362936 heartbeat IPC: 0.81008 cumulative IPC: 0.681974 (Simulation time: 1 hr 1 min 27 sec) 
Heartbeat CPU 0 instructions: 82000003 cycles: 111648022 heartbeat IPC: 0.77816 cumulative IPC: 0.683147 (Simulation time: 1 hr 1 min 43 sec) 
Heartbeat CPU 0 instructions: 83000001 cycles: 112907142 heartbeat IPC: 0.794204 cumulative IPC: 0.684458 (Simulation time: 1 hr 2 min 1 sec) 
Heartbeat CPU 0 instructions: 84000000 cycles: 114178755 heartbeat IPC: 0.786402 cumulative IPC: 0.685659 (Simulation time: 1 hr 2 min 19 sec) 
Heartbeat CPU 0 instructions: 85000001 cycles: 115424390 heartbeat IPC: 0.802804 cumulative IPC: 0.686995 (Simulation time: 1 hr 2 min 36 sec) 
Heartbeat CPU 0 instructions: 86000003 cycles: 116694955 heartbeat IPC: 0.787053 cumulative IPC: 0.688146 (Simulation time: 1 hr 2 min 49 sec) 
Heartbeat CPU 0 instructions: 87000001 cycles: 117945079 heartbeat IPC: 0.799919 cumulative IPC: 0.689398 (Simulation time: 1 hr 3 min 1 sec) 
Heartbeat CPU 0 instructions: 88000000 cycles: 119203349 heartbeat IPC: 0.794741 cumulative IPC: 0.690571 (Simulation time: 1 hr 3 min 12 sec) 
Heartbeat CPU 0 instructions: 89000001 cycles: 120475077 heartbeat IPC: 0.786332 cumulative IPC: 0.691637 (Simulation time: 1 hr 3 min 21 sec) 
Heartbeat CPU 0 instructions: 90000002 cycles: 121728849 heartbeat IPC: 0.797594 cumulative IPC: 0.692788 (Simulation time: 1 hr 3 min 29 sec) 
Heartbeat CPU 0 instructions: 91000000 cycles: 123006786 heartbeat IPC: 0.78251 cumulative IPC: 0.69377 (Simulation time: 1 hr 3 min 37 sec) 
Heartbeat CPU 0 instructions: 92000000 cycles: 124252859 heartbeat IPC: 0.802521 cumulative IPC: 0.694918 (Simulation time: 1 hr 3 min 45 sec) 
Heartbeat CPU 0 instructions: 93000002 cycles: 125550916 heartbeat IPC: 0.770384 cumulative IPC: 0.695739 (Simulation time: 1 hr 3 min 50 sec) 
Heartbeat CPU 0 instructions: 94000000 cycles: 126789455 heartbeat IPC: 0.807401 cumulative IPC: 0.696887 (Simulation time: 1 hr 3 min 55 sec) 
Heartbeat CPU 0 instructions: 95000003 cycles: 128028904 heartbeat IPC: 0.806813 cumulative IPC: 0.698005 (Simulation time: 1 hr 4 min 1 sec) 
Heartbeat CPU 0 instructions: 96000000 cycles: 129309178 heartbeat IPC: 0.78108 cumulative IPC: 0.69887 (Simulation time: 1 hr 4 min 6 sec) 
Heartbeat CPU 0 instructions: 97000001 cycles: 130550408 heartbeat IPC: 0.805653 cumulative IPC: 0.699936 (Simulation time: 1 hr 4 min 11 sec) 
Heartbeat CPU 0 instructions: 98000002 cycles: 131845703 heartbeat IPC: 0.772026 cumulative IPC: 0.70068 (Simulation time: 1 hr 4 min 16 sec) 
Heartbeat CPU 0 instructions: 99000000 cycles: 133090171 heartbeat IPC: 0.803555 cumulative IPC: 0.701689 (Simulation time: 1 hr 4 min 21 sec) 
Heartbeat CPU 0 instructions: 100000000 cycles: 134384994 heartbeat IPC: 0.772306 cumulative IPC: 0.702403 (Simulation time: 1 hr 4 min 26 sec) 
Heartbeat CPU 0 instructions: 101000000 cycles: 135633463 heartbeat IPC: 0.800981 cumulative IPC: 0.703354 (Simulation time: 1 hr 4 min 31 sec) 
Heartbeat CPU 0 instructions: 102000001 cycles: 136880151 heartbeat IPC: 0.802126 cumulative IPC: 0.704297 (Simulation time: 1 hr 4 min 36 sec) 
Heartbeat CPU 0 instructions: 103000002 cycles: 138171444 heartbeat IPC: 0.774418 cumulative IPC: 0.704983 (Simulation time: 1 hr 4 min 40 sec) 
Heartbeat CPU 0 instructions: 104000000 cycles: 139411197 heartbeat IPC: 0.806611 cumulative IPC: 0.705929 (Simulation time: 1 hr 4 min 44 sec) 
Heartbeat CPU 0 instructions: 105000001 cycles: 140704549 heartbeat IPC: 0.773185 cumulative IPC: 0.706576 (Simulation time: 1 hr 4 min 48 sec) 
Heartbeat CPU 0 instructions: 106000002 cycles: 141944057 heartbeat IPC: 0.806773 cumulative IPC: 0.707491 (Simulation time: 1 hr 4 min 53 sec) 
Heartbeat CPU 0 instructions: 107000000 cycles: 143217914 heartbeat IPC: 0.785016 cumulative IPC: 0.708212 (Simulation time: 1 hr 4 min 57 sec) 
Heartbeat CPU 0 instructions: 108000000 cycles: 144470846 heartbeat IPC: 0.798128 cumulative IPC: 0.709027 (Simulation time: 1 hr 5 min 1 sec) 
Heartbeat CPU 0 instructions: 109000003 cycles: 145712042 heartbeat IPC: 0.805677 cumulative IPC: 0.709888 (Simulation time: 1 hr 5 min 5 sec) 
Heartbeat CPU 0 instructions: 110000001 cycles: 146994141 heartbeat IPC: 0.779969 cumulative IPC: 0.710526 (Simulation time: 1 hr 5 min 9 sec) 
Finished CPU 0 instructions: 100000000 cycles: 140740789 cummulative IPC: 0.710526 (Simulation time: 1 hr 5 min 9 sec) 

ChampSim completed all CPUs

Region of Interest Statistics

CPU 0 cummulative IPC: 0.710526 instructions: 100000000 cycles: 140740789
LLC TOTAL     ACCESS:    3757320  HIT:    1506350  MISS:    2250970
LLC LOAD      ACCESS:     404612  HIT:     147501  MISS:     257111
LLC RFO       ACCESS:     463758  HIT:     173178  MISS:     290580
LLC PREFETCH  ACCESS:    2139766  HIT:     624735  MISS:    1515031
LLC WRITEBACK ACCESS:     749184  HIT:     560936  MISS:     188248
Insertion Distribution: 
	LOAD 32405 0 134332 93952 
	RFO 2406 0 161281 130315 
	PREF 0 77132 960690 662105 
	WRITEBACK 0 0 0 203489 
Total Prefetch Downgrades: 102324
