
*** ChampSim Multicore Out-of-Order Simulator ***

Warmup Instructions: 10000000
Simulation Instructions: 100000000
Configuration: 2
Number of CPUs: 1
LLC sets: 2048
LLC ways: 16
Off-chip DRAM Channels: 1 Width: 64-bit Data Rate: 1600 MT/s

CPU 0 runs /datasets/cs240c-wi22-a00-public/data/Assignment2-gz/omnetpp_4B.trace.gz
CPU 0 L1D next line prefetcher
CPU 0 L2C IP-based stride prefetcher
Initialize SRRIP state
Heartbeat CPU 0 instructions: 1000001 cycles: 567000 heartbeat IPC: 1.76367 cumulative IPC: 1.76367 (Simulation time: 0 hr 0 min 27 sec) 
Heartbeat CPU 0 instructions: 2000001 cycles: 1135748 heartbeat IPC: 1.75825 cumulative IPC: 1.76095 (Simulation time: 0 hr 0 min 53 sec) 
Heartbeat CPU 0 instructions: 3000001 cycles: 1722934 heartbeat IPC: 1.70304 cumulative IPC: 1.74122 (Simulation time: 0 hr 1 min 23 sec) 
Heartbeat CPU 0 instructions: 4000000 cycles: 2292353 heartbeat IPC: 1.75617 cumulative IPC: 1.74493 (Simulation time: 0 hr 1 min 50 sec) 
Heartbeat CPU 0 instructions: 5000000 cycles: 2866601 heartbeat IPC: 1.74141 cumulative IPC: 1.74423 (Simulation time: 0 hr 2 min 17 sec) 
Heartbeat CPU 0 instructions: 6000000 cycles: 3442882 heartbeat IPC: 1.73526 cumulative IPC: 1.74273 (Simulation time: 0 hr 2 min 45 sec) 
Heartbeat CPU 0 instructions: 7000000 cycles: 4012306 heartbeat IPC: 1.75616 cumulative IPC: 1.74463 (Simulation time: 0 hr 3 min 12 sec) 
Heartbeat CPU 0 instructions: 8000000 cycles: 4565893 heartbeat IPC: 1.8064 cumulative IPC: 1.75212 (Simulation time: 0 hr 3 min 38 sec) 
Heartbeat CPU 0 instructions: 9000001 cycles: 5148081 heartbeat IPC: 1.71766 cumulative IPC: 1.74822 (Simulation time: 0 hr 4 min 5 sec) 
Heartbeat CPU 0 instructions: 10000000 cycles: 5702145 heartbeat IPC: 1.80484 cumulative IPC: 1.75373 (Simulation time: 0 hr 4 min 32 sec) 

Warmup complete CPU 0 instructions: 10000003 cycles: 5702146 (Simulation time: 0 hr 4 min 32 sec) 

Heartbeat CPU 0 instructions: 11000000 cycles: 8976851 heartbeat IPC: 0.305371 cumulative IPC: 0.30537 (Simulation time: 0 hr 5 min 4 sec) 
Heartbeat CPU 0 instructions: 12000000 cycles: 10133289 heartbeat IPC: 0.864724 cumulative IPC: 0.45135 (Simulation time: 0 hr 5 min 29 sec) 
Heartbeat CPU 0 instructions: 13000003 cycles: 11278231 heartbeat IPC: 0.873409 cumulative IPC: 0.538012 (Simulation time: 0 hr 5 min 53 sec) 
Heartbeat CPU 0 instructions: 14000000 cycles: 12398471 heartbeat IPC: 0.892663 cumulative IPC: 0.597342 (Simulation time: 0 hr 6 min 20 sec) 
Heartbeat CPU 0 instructions: 15000000 cycles: 13537693 heartbeat IPC: 0.877792 cumulative IPC: 0.638117 (Simulation time: 0 hr 6 min 51 sec) 
Heartbeat CPU 0 instructions: 16000000 cycles: 16471865 heartbeat IPC: 0.340812 cumulative IPC: 0.557117 (Simulation time: 0 hr 7 min 22 sec) 
Heartbeat CPU 0 instructions: 17000003 cycles: 19413883 heartbeat IPC: 0.339904 cumulative IPC: 0.510512 (Simulation time: 0 hr 7 min 55 sec) 
Heartbeat CPU 0 instructions: 18000002 cycles: 22282365 heartbeat IPC: 0.348616 cumulative IPC: 0.482503 (Simulation time: 0 hr 8 min 27 sec) 
Heartbeat CPU 0 instructions: 19000002 cycles: 25180496 heartbeat IPC: 0.34505 cumulative IPC: 0.462051 (Simulation time: 0 hr 9 min 0 sec) 
Heartbeat CPU 0 instructions: 20000000 cycles: 28622960 heartbeat IPC: 0.290489 cumulative IPC: 0.436285 (Simulation time: 0 hr 9 min 34 sec) 
Heartbeat CPU 0 instructions: 21000000 cycles: 32050790 heartbeat IPC: 0.29173 cumulative IPC: 0.417479 (Simulation time: 0 hr 10 min 12 sec) 
Heartbeat CPU 0 instructions: 22000001 cycles: 35339340 heartbeat IPC: 0.304086 cumulative IPC: 0.404897 (Simulation time: 0 hr 10 min 47 sec) 
Heartbeat CPU 0 instructions: 23000000 cycles: 38265973 heartbeat IPC: 0.341689 cumulative IPC: 0.399216 (Simulation time: 0 hr 11 min 21 sec) 
Heartbeat CPU 0 instructions: 24000000 cycles: 41124051 heartbeat IPC: 0.349885 cumulative IPC: 0.395236 (Simulation time: 0 hr 11 min 50 sec) 
Heartbeat CPU 0 instructions: 25000000 cycles: 43992695 heartbeat IPC: 0.348597 cumulative IPC: 0.391741 (Simulation time: 0 hr 12 min 19 sec) 
Heartbeat CPU 0 instructions: 26000002 cycles: 46842317 heartbeat IPC: 0.350924 cumulative IPC: 0.388914 (Simulation time: 0 hr 12 min 49 sec) 
Heartbeat CPU 0 instructions: 27000001 cycles: 49741967 heartbeat IPC: 0.344869 cumulative IPC: 0.386014 (Simulation time: 0 hr 13 min 19 sec) 
Heartbeat CPU 0 instructions: 28000000 cycles: 52587996 heartbeat IPC: 0.351366 cumulative IPC: 0.383911 (Simulation time: 0 hr 13 min 48 sec) 
Heartbeat CPU 0 instructions: 29000001 cycles: 55509302 heartbeat IPC: 0.342313 cumulative IPC: 0.381471 (Simulation time: 0 hr 14 min 18 sec) 
Heartbeat CPU 0 instructions: 30000000 cycles: 58365881 heartbeat IPC: 0.350069 cumulative IPC: 0.379768 (Simulation time: 0 hr 14 min 48 sec) 
Heartbeat CPU 0 instructions: 31000002 cycles: 61212583 heartbeat IPC: 0.351284 cumulative IPC: 0.378307 (Simulation time: 0 hr 15 min 18 sec) 
Heartbeat CPU 0 instructions: 32000000 cycles: 64111541 heartbeat IPC: 0.344951 cumulative IPC: 0.376652 (Simulation time: 0 hr 15 min 48 sec) 
Heartbeat CPU 0 instructions: 33000000 cycles: 67372006 heartbeat IPC: 0.306705 cumulative IPC: 0.372954 (Simulation time: 0 hr 16 min 19 sec) 
Heartbeat CPU 0 instructions: 34000001 cycles: 70781216 heartbeat IPC: 0.293323 cumulative IPC: 0.368782 (Simulation time: 0 hr 16 min 51 sec) 
Heartbeat CPU 0 instructions: 35000001 cycles: 73886345 heartbeat IPC: 0.322048 cumulative IPC: 0.366654 (Simulation time: 0 hr 17 min 22 sec) 
Heartbeat CPU 0 instructions: 36000000 cycles: 77253521 heartbeat IPC: 0.296984 cumulative IPC: 0.363375 (Simulation time: 0 hr 17 min 53 sec) 
Heartbeat CPU 0 instructions: 37000001 cycles: 80118007 heartbeat IPC: 0.349103 cumulative IPC: 0.362826 (Simulation time: 0 hr 18 min 24 sec) 
Heartbeat CPU 0 instructions: 38000001 cycles: 83400868 heartbeat IPC: 0.304612 cumulative IPC: 0.360366 (Simulation time: 0 hr 18 min 58 sec) 
Heartbeat CPU 0 instructions: 39000001 cycles: 85993078 heartbeat IPC: 0.385771 cumulative IPC: 0.361186 (Simulation time: 0 hr 19 min 30 sec) 
Heartbeat CPU 0 instructions: 40000000 cycles: 87115710 heartbeat IPC: 0.890763 cumulative IPC: 0.368489 (Simulation time: 0 hr 19 min 56 sec) 
Heartbeat CPU 0 instructions: 41000001 cycles: 88241971 heartbeat IPC: 0.887895 cumulative IPC: 0.375576 (Simulation time: 0 hr 20 min 21 sec) 
Heartbeat CPU 0 instructions: 42000001 cycles: 89376290 heartbeat IPC: 0.881586 cumulative IPC: 0.382436 (Simulation time: 0 hr 20 min 46 sec) 
Heartbeat CPU 0 instructions: 43000002 cycles: 90579912 heartbeat IPC: 0.830826 cumulative IPC: 0.388794 (Simulation time: 0 hr 21 min 11 sec) 
Heartbeat CPU 0 instructions: 44000000 cycles: 93538707 heartbeat IPC: 0.337975 cumulative IPC: 0.387083 (Simulation time: 0 hr 21 min 41 sec) 
Heartbeat CPU 0 instructions: 45000000 cycles: 96503750 heartbeat IPC: 0.337263 cumulative IPC: 0.385456 (Simulation time: 0 hr 22 min 12 sec) 
Heartbeat CPU 0 instructions: 46000000 cycles: 99961339 heartbeat IPC: 0.289219 cumulative IPC: 0.381926 (Simulation time: 0 hr 22 min 44 sec) 
Heartbeat CPU 0 instructions: 47000000 cycles: 103400477 heartbeat IPC: 0.290771 cumulative IPC: 0.378717 (Simulation time: 0 hr 23 min 16 sec) 
Heartbeat CPU 0 instructions: 48000000 cycles: 106649722 heartbeat IPC: 0.307764 cumulative IPC: 0.376433 (Simulation time: 0 hr 23 min 47 sec) 
Heartbeat CPU 0 instructions: 49000000 cycles: 109590121 heartbeat IPC: 0.34009 cumulative IPC: 0.375404 (Simulation time: 0 hr 24 min 18 sec) 
Heartbeat CPU 0 instructions: 50000001 cycles: 112461765 heartbeat IPC: 0.348233 cumulative IPC: 0.374673 (Simulation time: 0 hr 24 min 48 sec) 
Heartbeat CPU 0 instructions: 51000003 cycles: 115340066 heartbeat IPC: 0.347428 cumulative IPC: 0.373958 (Simulation time: 0 hr 25 min 16 sec) 
Heartbeat CPU 0 instructions: 52000000 cycles: 118198408 heartbeat IPC: 0.349852 cumulative IPC: 0.373346 (Simulation time: 0 hr 25 min 44 sec) 
Heartbeat CPU 0 instructions: 53000003 cycles: 121069887 heartbeat IPC: 0.348254 cumulative IPC: 0.372721 (Simulation time: 0 hr 26 min 13 sec) 
Heartbeat CPU 0 instructions: 54000001 cycles: 123910685 heartbeat IPC: 0.352013 cumulative IPC: 0.372224 (Simulation time: 0 hr 26 min 41 sec) 
Heartbeat CPU 0 instructions: 55000001 cycles: 126902750 heartbeat IPC: 0.334217 cumulative IPC: 0.371285 (Simulation time: 0 hr 27 min 12 sec) 
Heartbeat CPU 0 instructions: 56000000 cycles: 129769629 heartbeat IPC: 0.348811 cumulative IPC: 0.370766 (Simulation time: 0 hr 27 min 41 sec) 
Heartbeat CPU 0 instructions: 57000003 cycles: 132619610 heartbeat IPC: 0.350881 cumulative IPC: 0.370319 (Simulation time: 0 hr 28 min 11 sec) 
Heartbeat CPU 0 instructions: 58000001 cycles: 135689292 heartbeat IPC: 0.325766 cumulative IPC: 0.369267 (Simulation time: 0 hr 28 min 39 sec) 
Heartbeat CPU 0 instructions: 59000001 cycles: 139076066 heartbeat IPC: 0.295266 cumulative IPC: 0.367388 (Simulation time: 0 hr 29 min 11 sec) 
Heartbeat CPU 0 instructions: 60000000 cycles: 142141549 heartbeat IPC: 0.326213 cumulative IPC: 0.366463 (Simulation time: 0 hr 29 min 43 sec) 
Heartbeat CPU 0 instructions: 61000001 cycles: 145259802 heartbeat IPC: 0.320693 cumulative IPC: 0.36544 (Simulation time: 0 hr 30 min 15 sec) 
Heartbeat CPU 0 instructions: 62000000 cycles: 148685107 heartbeat IPC: 0.291945 cumulative IPC: 0.36368 (Simulation time: 0 hr 30 min 46 sec) 
Heartbeat CPU 0 instructions: 63000001 cycles: 151587962 heartbeat IPC: 0.344489 cumulative IPC: 0.363298 (Simulation time: 0 hr 31 min 14 sec) 
Heartbeat CPU 0 instructions: 64000000 cycles: 154465874 heartbeat IPC: 0.347474 cumulative IPC: 0.362992 (Simulation time: 0 hr 31 min 43 sec) 
Heartbeat CPU 0 instructions: 65000001 cycles: 157323377 heartbeat IPC: 0.349956 cumulative IPC: 0.362746 (Simulation time: 0 hr 32 min 13 sec) 
Heartbeat CPU 0 instructions: 66000002 cycles: 161586140 heartbeat IPC: 0.23459 cumulative IPC: 0.359241 (Simulation time: 0 hr 32 min 46 sec) 
Heartbeat CPU 0 instructions: 67000001 cycles: 163263307 heartbeat IPC: 0.596243 cumulative IPC: 0.361764 (Simulation time: 0 hr 33 min 11 sec) 
Heartbeat CPU 0 instructions: 68000000 cycles: 164386770 heartbeat IPC: 0.890104 cumulative IPC: 0.365505 (Simulation time: 0 hr 33 min 35 sec) 
Heartbeat CPU 0 instructions: 69000003 cycles: 165528780 heartbeat IPC: 0.875652 cumulative IPC: 0.36915 (Simulation time: 0 hr 34 min 0 sec) 
Heartbeat CPU 0 instructions: 70000000 cycles: 166649181 heartbeat IPC: 0.892535 cumulative IPC: 0.372793 (Simulation time: 0 hr 34 min 26 sec) 
Heartbeat CPU 0 instructions: 71000001 cycles: 167823967 heartbeat IPC: 0.85122 cumulative IPC: 0.37626 (Simulation time: 0 hr 34 min 53 sec) 
Heartbeat CPU 0 instructions: 72000000 cycles: 171247167 heartbeat IPC: 0.292124 cumulative IPC: 0.37452 (Simulation time: 0 hr 35 min 27 sec) 
Heartbeat CPU 0 instructions: 73000000 cycles: 174743485 heartbeat IPC: 0.286015 cumulative IPC: 0.37269 (Simulation time: 0 hr 35 min 57 sec) 
Heartbeat CPU 0 instructions: 74000001 cycles: 178177502 heartbeat IPC: 0.291204 cumulative IPC: 0.371067 (Simulation time: 0 hr 36 min 29 sec) 
Heartbeat CPU 0 instructions: 75000001 cycles: 181149922 heartbeat IPC: 0.336426 cumulative IPC: 0.370481 (Simulation time: 0 hr 37 min 1 sec) 
Heartbeat CPU 0 instructions: 76000000 cycles: 184009267 heartbeat IPC: 0.34973 cumulative IPC: 0.370148 (Simulation time: 0 hr 37 min 33 sec) 
Heartbeat CPU 0 instructions: 77000000 cycles: 186897012 heartbeat IPC: 0.346291 cumulative IPC: 0.369768 (Simulation time: 0 hr 38 min 5 sec) 
Heartbeat CPU 0 instructions: 78000001 cycles: 189789581 heartbeat IPC: 0.345714 cumulative IPC: 0.36939 (Simulation time: 0 hr 38 min 36 sec) 
Heartbeat CPU 0 instructions: 79000001 cycles: 192668318 heartbeat IPC: 0.347375 cumulative IPC: 0.369051 (Simulation time: 0 hr 39 min 6 sec) 
Heartbeat CPU 0 instructions: 80000000 cycles: 195522608 heartbeat IPC: 0.350349 cumulative IPC: 0.368769 (Simulation time: 0 hr 39 min 36 sec) 
Heartbeat CPU 0 instructions: 81000002 cycles: 198449411 heartbeat IPC: 0.34167 cumulative IPC: 0.368358 (Simulation time: 0 hr 40 min 6 sec) 
Heartbeat CPU 0 instructions: 82000001 cycles: 201302080 heartbeat IPC: 0.350549 cumulative IPC: 0.368098 (Simulation time: 0 hr 40 min 35 sec) 
Heartbeat CPU 0 instructions: 83000002 cycles: 204211676 heartbeat IPC: 0.343691 cumulative IPC: 0.367741 (Simulation time: 0 hr 41 min 6 sec) 
Heartbeat CPU 0 instructions: 84000000 cycles: 207139122 heartbeat IPC: 0.341594 cumulative IPC: 0.367361 (Simulation time: 0 hr 41 min 36 sec) 
Heartbeat CPU 0 instructions: 85000002 cycles: 210537680 heartbeat IPC: 0.294243 cumulative IPC: 0.366147 (Simulation time: 0 hr 42 min 6 sec) 
Heartbeat CPU 0 instructions: 86000002 cycles: 213934658 heartbeat IPC: 0.294379 cumulative IPC: 0.364977 (Simulation time: 0 hr 42 min 35 sec) 
Heartbeat CPU 0 instructions: 87000000 cycles: 217023195 heartbeat IPC: 0.323777 cumulative IPC: 0.364374 (Simulation time: 0 hr 43 min 4 sec) 
Heartbeat CPU 0 instructions: 88000000 cycles: 220113537 heartbeat IPC: 0.323589 cumulative IPC: 0.363787 (Simulation time: 0 hr 43 min 34 sec) 
Heartbeat CPU 0 instructions: 89000002 cycles: 223284551 heartbeat IPC: 0.315357 cumulative IPC: 0.363081 (Simulation time: 0 hr 44 min 6 sec) 
Heartbeat CPU 0 instructions: 90000001 cycles: 226145970 heartbeat IPC: 0.349477 cumulative IPC: 0.362904 (Simulation time: 0 hr 44 min 35 sec) 
Heartbeat CPU 0 instructions: 91000001 cycles: 229044307 heartbeat IPC: 0.345025 cumulative IPC: 0.362672 (Simulation time: 0 hr 45 min 3 sec) 
Heartbeat CPU 0 instructions: 92000000 cycles: 232007268 heartbeat IPC: 0.3375 cumulative IPC: 0.362343 (Simulation time: 0 hr 45 min 32 sec) 
Heartbeat CPU 0 instructions: 93000000 cycles: 234888629 heartbeat IPC: 0.347058 cumulative IPC: 0.36215 (Simulation time: 0 hr 45 min 59 sec) 
Heartbeat CPU 0 instructions: 94000000 cycles: 239571264 heartbeat IPC: 0.213555 cumulative IPC: 0.359175 (Simulation time: 0 hr 46 min 33 sec) 
Heartbeat CPU 0 instructions: 95000000 cycles: 240763850 heartbeat IPC: 0.838514 cumulative IPC: 0.361607 (Simulation time: 0 hr 46 min 56 sec) 
Heartbeat CPU 0 instructions: 96000000 cycles: 241906832 heartbeat IPC: 0.874904 cumulative IPC: 0.364091 (Simulation time: 0 hr 47 min 17 sec) 
Heartbeat CPU 0 instructions: 97000002 cycles: 243025534 heartbeat IPC: 0.893895 cumulative IPC: 0.366588 (Simulation time: 0 hr 47 min 39 sec) 
Heartbeat CPU 0 instructions: 98000001 cycles: 244167471 heartbeat IPC: 0.875704 cumulative IPC: 0.369026 (Simulation time: 0 hr 48 min 6 sec) 
Heartbeat CPU 0 instructions: 99000002 cycles: 246065849 heartbeat IPC: 0.526766 cumulative IPC: 0.370272 (Simulation time: 0 hr 48 min 32 sec) 
Heartbeat CPU 0 instructions: 100000000 cycles: 249566605 heartbeat IPC: 0.285652 cumulative IPC: 0.369057 (Simulation time: 0 hr 49 min 1 sec) 
Heartbeat CPU 0 instructions: 101000002 cycles: 252743061 heartbeat IPC: 0.314817 cumulative IPC: 0.36836 (Simulation time: 0 hr 49 min 30 sec) 
Heartbeat CPU 0 instructions: 102000001 cycles: 255835730 heartbeat IPC: 0.323345 cumulative IPC: 0.367803 (Simulation time: 0 hr 49 min 59 sec) 
Heartbeat CPU 0 instructions: 103000000 cycles: 258730026 heartbeat IPC: 0.345507 cumulative IPC: 0.367548 (Simulation time: 0 hr 50 min 25 sec) 
Heartbeat CPU 0 instructions: 104000000 cycles: 261633791 heartbeat IPC: 0.34438 cumulative IPC: 0.367286 (Simulation time: 0 hr 50 min 50 sec) 
Heartbeat CPU 0 instructions: 105000001 cycles: 264509690 heartbeat IPC: 0.347718 cumulative IPC: 0.367068 (Simulation time: 0 hr 51 min 13 sec) 
Heartbeat CPU 0 instructions: 106000000 cycles: 267492724 heartbeat IPC: 0.335229 cumulative IPC: 0.366705 (Simulation time: 0 hr 51 min 39 sec) 
Heartbeat CPU 0 instructions: 107000002 cycles: 270378066 heartbeat IPC: 0.34658 cumulative IPC: 0.366486 (Simulation time: 0 hr 52 min 1 sec) 
Heartbeat CPU 0 instructions: 108000000 cycles: 273263842 heartbeat IPC: 0.346527 cumulative IPC: 0.366271 (Simulation time: 0 hr 52 min 23 sec) 
Heartbeat CPU 0 instructions: 109000002 cycles: 276139103 heartbeat IPC: 0.347795 cumulative IPC: 0.366074 (Simulation time: 0 hr 52 min 45 sec) 
Heartbeat CPU 0 instructions: 110000001 cycles: 279057409 heartbeat IPC: 0.342664 cumulative IPC: 0.365824 (Simulation time: 0 hr 53 min 6 sec) 
Finished CPU 0 instructions: 100000001 cycles: 273355265 cummulative IPC: 0.365824 (Simulation time: 0 hr 53 min 6 sec) 

ChampSim completed all CPUs

Region of Interest Statistics

CPU 0 cummulative IPC: 0.365824 instructions: 100000001 cycles: 273355265
LLC TOTAL     ACCESS:    4666130  HIT:    2230859  MISS:    2435271
LLC LOAD      ACCESS:    2169934  HIT:    1729914  MISS:     440020
LLC RFO       ACCESS:      24940  HIT:       7100  MISS:      17840
LLC PREFETCH  ACCESS:    2390887  HIT:     424463  MISS:    1966424
LLC WRITEBACK ACCESS:      80369  HIT:      69382  MISS:      10987
Insertion Distribution: 
	LOAD 8376 0 311681 216743 
	RFO 4347 0 10096 5369 
	PREF 0 1457 1145080 1046184 
	WRITEBACK 0 0 0 12366 
Total Prefetch Downgrades: 6288
