
*** ChampSim Multicore Out-of-Order Simulator ***

Warmup Instructions: 10000000
Simulation Instructions: 100000000
Configuration: 2
Number of CPUs: 1
LLC sets: 2048
LLC ways: 16
Off-chip DRAM Channels: 1 Width: 64-bit Data Rate: 1600 MT/s

CPU 0 runs /datasets/cs240c-wi22-a00-public/data/Assignment2-gz/sphinx3_883B.trace.gz
CPU 0 L1D next line prefetcher
CPU 0 L2C IP-based stride prefetcher
Initialize SRRIP state
Heartbeat CPU 0 instructions: 1000003 cycles: 414388 heartbeat IPC: 2.4132 cumulative IPC: 2.4132 (Simulation time: 0 hr 0 min 30 sec) 
Heartbeat CPU 0 instructions: 2000000 cycles: 823940 heartbeat IPC: 2.44168 cumulative IPC: 2.42736 (Simulation time: 0 hr 0 min 55 sec) 
Heartbeat CPU 0 instructions: 3000003 cycles: 1298794 heartbeat IPC: 2.10592 cumulative IPC: 2.30984 (Simulation time: 0 hr 1 min 19 sec) 
Heartbeat CPU 0 instructions: 4000000 cycles: 1637684 heartbeat IPC: 2.9508 cumulative IPC: 2.44247 (Simulation time: 0 hr 1 min 44 sec) 
Heartbeat CPU 0 instructions: 5000000 cycles: 1992343 heartbeat IPC: 2.81961 cumulative IPC: 2.50961 (Simulation time: 0 hr 2 min 11 sec) 
Heartbeat CPU 0 instructions: 6000003 cycles: 2406772 heartbeat IPC: 2.41297 cumulative IPC: 2.49297 (Simulation time: 0 hr 2 min 38 sec) 
Heartbeat CPU 0 instructions: 7000002 cycles: 2815572 heartbeat IPC: 2.44618 cumulative IPC: 2.48617 (Simulation time: 0 hr 3 min 2 sec) 
Heartbeat CPU 0 instructions: 8000000 cycles: 3291846 heartbeat IPC: 2.09963 cumulative IPC: 2.43025 (Simulation time: 0 hr 3 min 26 sec) 
Heartbeat CPU 0 instructions: 9000001 cycles: 3630845 heartbeat IPC: 2.94986 cumulative IPC: 2.47876 (Simulation time: 0 hr 3 min 49 sec) 
Heartbeat CPU 0 instructions: 10000000 cycles: 3984957 heartbeat IPC: 2.82396 cumulative IPC: 2.50944 (Simulation time: 0 hr 4 min 12 sec) 

Warmup complete CPU 0 instructions: 10000004 cycles: 3984958 (Simulation time: 0 hr 4 min 12 sec) 

Heartbeat CPU 0 instructions: 11000002 cycles: 5726824 heartbeat IPC: 0.574098 cumulative IPC: 0.574096 (Simulation time: 0 hr 4 min 42 sec) 
Heartbeat CPU 0 instructions: 12000000 cycles: 7414182 heartbeat IPC: 0.592641 cumulative IPC: 0.583221 (Simulation time: 0 hr 5 min 16 sec) 
Heartbeat CPU 0 instructions: 13000001 cycles: 8732885 heartbeat IPC: 0.758322 cumulative IPC: 0.631854 (Simulation time: 0 hr 5 min 43 sec) 
Heartbeat CPU 0 instructions: 14000002 cycles: 9660880 heartbeat IPC: 1.07759 cumulative IPC: 0.704731 (Simulation time: 0 hr 6 min 11 sec) 
Heartbeat CPU 0 instructions: 15000000 cycles: 10648720 heartbeat IPC: 1.01231 cumulative IPC: 0.750326 (Simulation time: 0 hr 6 min 39 sec) 
Heartbeat CPU 0 instructions: 16000000 cycles: 12379671 heartbeat IPC: 0.577717 cumulative IPC: 0.714735 (Simulation time: 0 hr 7 min 11 sec) 
Heartbeat CPU 0 instructions: 17000000 cycles: 14067668 heartbeat IPC: 0.592418 cumulative IPC: 0.694257 (Simulation time: 0 hr 7 min 39 sec) 
Heartbeat CPU 0 instructions: 18000002 cycles: 15497465 heartbeat IPC: 0.699401 cumulative IPC: 0.694896 (Simulation time: 0 hr 8 min 6 sec) 
Heartbeat CPU 0 instructions: 19000003 cycles: 16429703 heartbeat IPC: 1.07269 cumulative IPC: 0.723197 (Simulation time: 0 hr 8 min 33 sec) 
Heartbeat CPU 0 instructions: 20000000 cycles: 17315217 heartbeat IPC: 1.12928 cumulative IPC: 0.750173 (Simulation time: 0 hr 9 min 1 sec) 
Heartbeat CPU 0 instructions: 21000000 cycles: 19009525 heartbeat IPC: 0.590211 cumulative IPC: 0.732134 (Simulation time: 0 hr 9 min 35 sec) 
Heartbeat CPU 0 instructions: 22000003 cycles: 20734053 heartbeat IPC: 0.579871 cumulative IPC: 0.716457 (Simulation time: 0 hr 10 min 7 sec) 
Heartbeat CPU 0 instructions: 23000001 cycles: 22405717 heartbeat IPC: 0.598205 cumulative IPC: 0.705725 (Simulation time: 0 hr 10 min 35 sec) 
Heartbeat CPU 0 instructions: 24000000 cycles: 23376508 heartbeat IPC: 1.03009 cumulative IPC: 0.721964 (Simulation time: 0 hr 11 min 0 sec) 
Heartbeat CPU 0 instructions: 25000003 cycles: 24285115 heartbeat IPC: 1.10059 cumulative IPC: 0.73891 (Simulation time: 0 hr 11 min 26 sec) 
Heartbeat CPU 0 instructions: 26000001 cycles: 25632158 heartbeat IPC: 0.742365 cumulative IPC: 0.739125 (Simulation time: 0 hr 11 min 55 sec) 
Heartbeat CPU 0 instructions: 27000001 cycles: 27374896 heartbeat IPC: 0.57381 cumulative IPC: 0.726808 (Simulation time: 0 hr 12 min 24 sec) 
Heartbeat CPU 0 instructions: 28000000 cycles: 29078162 heartbeat IPC: 0.587107 cumulative IPC: 0.717326 (Simulation time: 0 hr 12 min 53 sec) 
Heartbeat CPU 0 instructions: 29000000 cycles: 30208175 heartbeat IPC: 0.884946 cumulative IPC: 0.724549 (Simulation time: 0 hr 13 min 23 sec) 
Heartbeat CPU 0 instructions: 30000002 cycles: 31116720 heartbeat IPC: 1.10066 cumulative IPC: 0.737143 (Simulation time: 0 hr 13 min 52 sec) 
Heartbeat CPU 0 instructions: 31000003 cycles: 32317992 heartbeat IPC: 0.832452 cumulative IPC: 0.741184 (Simulation time: 0 hr 14 min 20 sec) 
Heartbeat CPU 0 instructions: 32000000 cycles: 34054487 heartbeat IPC: 0.575871 cumulative IPC: 0.731638 (Simulation time: 0 hr 14 min 51 sec) 
Heartbeat CPU 0 instructions: 33000000 cycles: 35694075 heartbeat IPC: 0.609909 cumulative IPC: 0.725343 (Simulation time: 0 hr 15 min 20 sec) 
Heartbeat CPU 0 instructions: 34000000 cycles: 36944832 heartbeat IPC: 0.799516 cumulative IPC: 0.728158 (Simulation time: 0 hr 15 min 47 sec) 
Heartbeat CPU 0 instructions: 35000003 cycles: 37860720 heartbeat IPC: 1.09184 cumulative IPC: 0.737991 (Simulation time: 0 hr 16 min 16 sec) 
Heartbeat CPU 0 instructions: 36000000 cycles: 39007025 heartbeat IPC: 0.872366 cumulative IPC: 0.742389 (Simulation time: 0 hr 16 min 46 sec) 
Heartbeat CPU 0 instructions: 37000001 cycles: 40753783 heartbeat IPC: 0.57249 cumulative IPC: 0.734318 (Simulation time: 0 hr 17 min 18 sec) 
Heartbeat CPU 0 instructions: 38000000 cycles: 42392944 heartbeat IPC: 0.610068 cumulative IPC: 0.729015 (Simulation time: 0 hr 17 min 49 sec) 
Heartbeat CPU 0 instructions: 39000003 cycles: 43630792 heartbeat IPC: 0.807856 cumulative IPC: 0.731477 (Simulation time: 0 hr 18 min 18 sec) 
Heartbeat CPU 0 instructions: 40000000 cycles: 44534967 heartbeat IPC: 1.10598 cumulative IPC: 0.739827 (Simulation time: 0 hr 18 min 46 sec) 
Heartbeat CPU 0 instructions: 41000003 cycles: 45662516 heartbeat IPC: 0.886882 cumulative IPC: 0.743806 (Simulation time: 0 hr 19 min 14 sec) 
Heartbeat CPU 0 instructions: 42000000 cycles: 47423127 heartbeat IPC: 0.567983 cumulative IPC: 0.736679 (Simulation time: 0 hr 19 min 48 sec) 
Heartbeat CPU 0 instructions: 43000003 cycles: 49098281 heartbeat IPC: 0.596962 cumulative IPC: 0.731491 (Simulation time: 0 hr 20 min 21 sec) 
Heartbeat CPU 0 instructions: 44000000 cycles: 50258012 heartbeat IPC: 0.862266 cumulative IPC: 0.734769 (Simulation time: 0 hr 20 min 52 sec) 
Heartbeat CPU 0 instructions: 45000002 cycles: 51163696 heartbeat IPC: 1.10414 cumulative IPC: 0.74186 (Simulation time: 0 hr 21 min 23 sec) 
Heartbeat CPU 0 instructions: 46000001 cycles: 52326004 heartbeat IPC: 0.860356 cumulative IPC: 0.744709 (Simulation time: 0 hr 21 min 53 sec) 
Heartbeat CPU 0 instructions: 47000002 cycles: 54056911 heartbeat IPC: 0.577732 cumulative IPC: 0.738937 (Simulation time: 0 hr 22 min 27 sec) 
Heartbeat CPU 0 instructions: 48000000 cycles: 55747399 heartbeat IPC: 0.591544 cumulative IPC: 0.734123 (Simulation time: 0 hr 22 min 59 sec) 
Heartbeat CPU 0 instructions: 49000001 cycles: 56787995 heartbeat IPC: 0.960989 cumulative IPC: 0.738594 (Simulation time: 0 hr 23 min 27 sec) 
Heartbeat CPU 0 instructions: 50000000 cycles: 57691864 heartbeat IPC: 1.10635 cumulative IPC: 0.744783 (Simulation time: 0 hr 23 min 54 sec) 
Heartbeat CPU 0 instructions: 51000003 cycles: 58897620 heartbeat IPC: 0.829358 cumulative IPC: 0.74664 (Simulation time: 0 hr 24 min 23 sec) 
Heartbeat CPU 0 instructions: 52000000 cycles: 60666762 heartbeat IPC: 0.565244 cumulative IPC: 0.740978 (Simulation time: 0 hr 24 min 54 sec) 
Heartbeat CPU 0 instructions: 53000000 cycles: 62558198 heartbeat IPC: 0.528699 cumulative IPC: 0.734124 (Simulation time: 0 hr 25 min 25 sec) 
Heartbeat CPU 0 instructions: 54000003 cycles: 63862371 heartbeat IPC: 0.766772 cumulative IPC: 0.734835 (Simulation time: 0 hr 25 min 53 sec) 
Heartbeat CPU 0 instructions: 55000003 cycles: 64797258 heartbeat IPC: 1.06965 cumulative IPC: 0.739982 (Simulation time: 0 hr 26 min 20 sec) 
Heartbeat CPU 0 instructions: 56000000 cycles: 65717346 heartbeat IPC: 1.08685 cumulative IPC: 0.745152 (Simulation time: 0 hr 26 min 47 sec) 
Heartbeat CPU 0 instructions: 57000002 cycles: 66964373 heartbeat IPC: 0.801909 cumulative IPC: 0.746276 (Simulation time: 0 hr 27 min 16 sec) 
Heartbeat CPU 0 instructions: 58000001 cycles: 68047180 heartbeat IPC: 0.923525 cumulative IPC: 0.749272 (Simulation time: 0 hr 27 min 44 sec) 
Heartbeat CPU 0 instructions: 59000003 cycles: 68896527 heartbeat IPC: 1.17738 cumulative IPC: 0.754873 (Simulation time: 0 hr 28 min 13 sec) 
Heartbeat CPU 0 instructions: 60000000 cycles: 69769147 heartbeat IPC: 1.14597 cumulative IPC: 0.760061 (Simulation time: 0 hr 28 min 42 sec) 
Heartbeat CPU 0 instructions: 61000001 cycles: 71014851 heartbeat IPC: 0.80276 cumulative IPC: 0.760855 (Simulation time: 0 hr 29 min 13 sec) 
Heartbeat CPU 0 instructions: 62000001 cycles: 71855838 heartbeat IPC: 1.18908 cumulative IPC: 0.766161 (Simulation time: 0 hr 29 min 45 sec) 
Heartbeat CPU 0 instructions: 63000003 cycles: 72658539 heartbeat IPC: 1.2458 cumulative IPC: 0.771767 (Simulation time: 0 hr 30 min 13 sec) 
Heartbeat CPU 0 instructions: 64000000 cycles: 73917975 heartbeat IPC: 0.794004 cumulative IPC: 0.772167 (Simulation time: 0 hr 30 min 43 sec) 
Heartbeat CPU 0 instructions: 65000003 cycles: 74780435 heartbeat IPC: 1.15948 cumulative IPC: 0.776886 (Simulation time: 0 hr 31 min 11 sec) 
Heartbeat CPU 0 instructions: 66000002 cycles: 75594354 heartbeat IPC: 1.22862 cumulative IPC: 0.78202 (Simulation time: 0 hr 31 min 38 sec) 
Heartbeat CPU 0 instructions: 67000000 cycles: 76841051 heartbeat IPC: 0.802118 cumulative IPC: 0.782364 (Simulation time: 0 hr 32 min 7 sec) 
Heartbeat CPU 0 instructions: 68000000 cycles: 78545773 heartbeat IPC: 0.586606 cumulative IPC: 0.777888 (Simulation time: 0 hr 32 min 37 sec) 
Heartbeat CPU 0 instructions: 69000003 cycles: 79419460 heartbeat IPC: 1.14458 cumulative IPC: 0.782135 (Simulation time: 0 hr 33 min 7 sec) 
Heartbeat CPU 0 instructions: 70000000 cycles: 80290646 heartbeat IPC: 1.14786 cumulative IPC: 0.786311 (Simulation time: 0 hr 33 min 35 sec) 
Heartbeat CPU 0 instructions: 71000000 cycles: 81476381 heartbeat IPC: 0.843359 cumulative IPC: 0.787184 (Simulation time: 0 hr 34 min 4 sec) 
Heartbeat CPU 0 instructions: 72000000 cycles: 83020819 heartbeat IPC: 0.647485 cumulative IPC: 0.784454 (Simulation time: 0 hr 34 min 35 sec) 
Heartbeat CPU 0 instructions: 73000000 cycles: 83888506 heartbeat IPC: 1.15249 cumulative IPC: 0.788451 (Simulation time: 0 hr 35 min 5 sec) 
Heartbeat CPU 0 instructions: 74000002 cycles: 84746136 heartbeat IPC: 1.16601 cumulative IPC: 0.79246 (Simulation time: 0 hr 35 min 34 sec) 
Heartbeat CPU 0 instructions: 75000000 cycles: 85972319 heartbeat IPC: 0.815537 cumulative IPC: 0.792805 (Simulation time: 0 hr 36 min 4 sec) 
Heartbeat CPU 0 instructions: 76000000 cycles: 87322727 heartbeat IPC: 0.740517 cumulative IPC: 0.791958 (Simulation time: 0 hr 36 min 33 sec) 
Heartbeat CPU 0 instructions: 77000003 cycles: 88211304 heartbeat IPC: 1.1254 cumulative IPC: 0.795476 (Simulation time: 0 hr 37 min 1 sec) 
Heartbeat CPU 0 instructions: 78000000 cycles: 89062472 heartbeat IPC: 1.17485 cumulative IPC: 0.799271 (Simulation time: 0 hr 37 min 32 sec) 
Heartbeat CPU 0 instructions: 79000001 cycles: 90456464 heartbeat IPC: 0.717365 cumulative IPC: 0.797951 (Simulation time: 0 hr 38 min 5 sec) 
Heartbeat CPU 0 instructions: 80000000 cycles: 91654939 heartbeat IPC: 0.834393 cumulative IPC: 0.798449 (Simulation time: 0 hr 38 min 36 sec) 
Heartbeat CPU 0 instructions: 81000000 cycles: 92539763 heartbeat IPC: 1.13017 cumulative IPC: 0.801763 (Simulation time: 0 hr 39 min 5 sec) 
Heartbeat CPU 0 instructions: 82000000 cycles: 93369255 heartbeat IPC: 1.20556 cumulative IPC: 0.805511 (Simulation time: 0 hr 39 min 34 sec) 
Heartbeat CPU 0 instructions: 83000000 cycles: 94865564 heartbeat IPC: 0.668311 cumulative IPC: 0.803252 (Simulation time: 0 hr 40 min 6 sec) 
Heartbeat CPU 0 instructions: 84000000 cycles: 95792375 heartbeat IPC: 1.07897 cumulative IPC: 0.806035 (Simulation time: 0 hr 40 min 36 sec) 
Heartbeat CPU 0 instructions: 85000001 cycles: 96637299 heartbeat IPC: 1.18354 cumulative IPC: 0.809478 (Simulation time: 0 hr 41 min 3 sec) 
Heartbeat CPU 0 instructions: 86000001 cycles: 97668115 heartbeat IPC: 0.970105 cumulative IPC: 0.811245 (Simulation time: 0 hr 41 min 35 sec) 
Heartbeat CPU 0 instructions: 87000000 cycles: 98890253 heartbeat IPC: 0.818237 cumulative IPC: 0.811335 (Simulation time: 0 hr 42 min 6 sec) 
Heartbeat CPU 0 instructions: 88000000 cycles: 99755027 heartbeat IPC: 1.15637 cumulative IPC: 0.814451 (Simulation time: 0 hr 42 min 35 sec) 
Heartbeat CPU 0 instructions: 89000001 cycles: 100566192 heartbeat IPC: 1.2328 cumulative IPC: 0.817964 (Simulation time: 0 hr 43 min 4 sec) 
Heartbeat CPU 0 instructions: 90000000 cycles: 101904530 heartbeat IPC: 0.747195 cumulative IPC: 0.816997 (Simulation time: 0 hr 43 min 35 sec) 
Heartbeat CPU 0 instructions: 91000003 cycles: 103165712 heartbeat IPC: 0.792909 cumulative IPC: 0.816691 (Simulation time: 0 hr 44 min 3 sec) 
Heartbeat CPU 0 instructions: 92000000 cycles: 104126136 heartbeat IPC: 1.0412 cumulative IPC: 0.818844 (Simulation time: 0 hr 44 min 28 sec) 
Heartbeat CPU 0 instructions: 93000000 cycles: 104977533 heartbeat IPC: 1.17454 cumulative IPC: 0.821843 (Simulation time: 0 hr 44 min 53 sec) 
Heartbeat CPU 0 instructions: 94000002 cycles: 105803748 heartbeat IPC: 1.21034 cumulative IPC: 0.824995 (Simulation time: 0 hr 45 min 20 sec) 
Heartbeat CPU 0 instructions: 95000001 cycles: 107231235 heartbeat IPC: 0.700531 cumulative IPC: 0.823274 (Simulation time: 0 hr 45 min 46 sec) 
Heartbeat CPU 0 instructions: 96000000 cycles: 108092616 heartbeat IPC: 1.16093 cumulative IPC: 0.826068 (Simulation time: 0 hr 46 min 13 sec) 
Heartbeat CPU 0 instructions: 97000002 cycles: 108921601 heartbeat IPC: 1.2063 cumulative IPC: 0.829072 (Simulation time: 0 hr 46 min 39 sec) 
Heartbeat CPU 0 instructions: 98000003 cycles: 110122259 heartbeat IPC: 0.832877 cumulative IPC: 0.829115 (Simulation time: 0 hr 47 min 7 sec) 
Heartbeat CPU 0 instructions: 99000000 cycles: 111207793 heartbeat IPC: 0.921203 cumulative IPC: 0.830047 (Simulation time: 0 hr 47 min 34 sec) 
Heartbeat CPU 0 instructions: 100000000 cycles: 112053811 heartbeat IPC: 1.18201 cumulative IPC: 0.832802 (Simulation time: 0 hr 47 min 59 sec) 
Heartbeat CPU 0 instructions: 101000000 cycles: 112871574 heartbeat IPC: 1.22285 cumulative IPC: 0.835732 (Simulation time: 0 hr 48 min 26 sec) 
Heartbeat CPU 0 instructions: 102000003 cycles: 114419277 heartbeat IPC: 0.646121 cumulative IPC: 0.833074 (Simulation time: 0 hr 48 min 54 sec) 
Heartbeat CPU 0 instructions: 103000001 cycles: 115379306 heartbeat IPC: 1.04163 cumulative IPC: 0.834872 (Simulation time: 0 hr 49 min 23 sec) 
Heartbeat CPU 0 instructions: 104000000 cycles: 116220075 heartbeat IPC: 1.18939 cumulative IPC: 0.837528 (Simulation time: 0 hr 49 min 50 sec) 
Heartbeat CPU 0 instructions: 105000002 cycles: 117318194 heartbeat IPC: 0.91065 cumulative IPC: 0.838236 (Simulation time: 0 hr 50 min 18 sec) 
Heartbeat CPU 0 instructions: 106000003 cycles: 118879316 heartbeat IPC: 0.640566 cumulative IPC: 0.83555 (Simulation time: 0 hr 50 min 46 sec) 
Heartbeat CPU 0 instructions: 107000001 cycles: 119765659 heartbeat IPC: 1.12823 cumulative IPC: 0.837791 (Simulation time: 0 hr 51 min 10 sec) 
Heartbeat CPU 0 instructions: 108000000 cycles: 120613933 heartbeat IPC: 1.17886 cumulative IPC: 0.840271 (Simulation time: 0 hr 51 min 35 sec) 
Heartbeat CPU 0 instructions: 109000001 cycles: 121790779 heartbeat IPC: 0.84973 cumulative IPC: 0.840366 (Simulation time: 0 hr 51 min 58 sec) 
Heartbeat CPU 0 instructions: 110000000 cycles: 123242816 heartbeat IPC: 0.688687 cumulative IPC: 0.838519 (Simulation time: 0 hr 52 min 23 sec) 
Finished CPU 0 instructions: 100000000 cycles: 119257859 cummulative IPC: 0.838519 (Simulation time: 0 hr 52 min 23 sec) 

ChampSim completed all CPUs

Region of Interest Statistics

CPU 0 cummulative IPC: 0.838519 instructions: 100000000 cycles: 119257859
LLC TOTAL     ACCESS:    1795535  HIT:     593957  MISS:    1201578
LLC LOAD      ACCESS:     314420  HIT:     155166  MISS:     159254
LLC RFO       ACCESS:      99833  HIT:      76301  MISS:      23532
LLC PREFETCH  ACCESS:    1239861  HIT:     235174  MISS:    1004687
LLC WRITEBACK ACCESS:     141421  HIT:     127316  MISS:      14105
Insertion Distribution: 
	LOAD 2405 0 112368 70565 
	RFO 188 0 17069 11140 
	PREF 0 4318 599950 528113 
	WRITEBACK 0 0 0 15524 
Total Prefetch Downgrades: 8012
