
*** ChampSim Multicore Out-of-Order Simulator ***

Warmup Instructions: 10000000
Simulation Instructions: 100000000
Configuration: 2
Number of CPUs: 1
LLC sets: 2048
LLC ways: 16
Off-chip DRAM Channels: 1 Width: 64-bit Data Rate: 1600 MT/s

CPU 0 runs /datasets/cs240c-wi22-a00-public/data/Assignment2-gz/perlbench_105B.trace.gz
CPU 0 L1D next line prefetcher
CPU 0 L2C IP-based stride prefetcher
Initialize SRRIP state
Heartbeat CPU 0 instructions: 1000000 cycles: 578016 heartbeat IPC: 1.73006 cumulative IPC: 1.73006 (Simulation time: 0 hr 0 min 30 sec) 
Heartbeat CPU 0 instructions: 2000001 cycles: 1164321 heartbeat IPC: 1.7056 cumulative IPC: 1.71774 (Simulation time: 0 hr 1 min 0 sec) 
Heartbeat CPU 0 instructions: 3000001 cycles: 1726557 heartbeat IPC: 1.77861 cumulative IPC: 1.73756 (Simulation time: 0 hr 1 min 31 sec) 
Heartbeat CPU 0 instructions: 4000000 cycles: 2305993 heartbeat IPC: 1.72581 cumulative IPC: 1.73461 (Simulation time: 0 hr 2 min 3 sec) 
Heartbeat CPU 0 instructions: 5000003 cycles: 2884260 heartbeat IPC: 1.72931 cumulative IPC: 1.73355 (Simulation time: 0 hr 2 min 35 sec) 
Heartbeat CPU 0 instructions: 6000003 cycles: 3447519 heartbeat IPC: 1.77538 cumulative IPC: 1.74038 (Simulation time: 0 hr 3 min 6 sec) 
Heartbeat CPU 0 instructions: 7000000 cycles: 4019987 heartbeat IPC: 1.74682 cumulative IPC: 1.7413 (Simulation time: 0 hr 3 min 39 sec) 
Heartbeat CPU 0 instructions: 8000000 cycles: 4598049 heartbeat IPC: 1.72992 cumulative IPC: 1.73987 (Simulation time: 0 hr 4 min 11 sec) 
Heartbeat CPU 0 instructions: 9000000 cycles: 5176571 heartbeat IPC: 1.72854 cumulative IPC: 1.7386 (Simulation time: 0 hr 4 min 42 sec) 
Heartbeat CPU 0 instructions: 10000002 cycles: 5745489 heartbeat IPC: 1.75773 cumulative IPC: 1.7405 (Simulation time: 0 hr 5 min 17 sec) 

Warmup complete CPU 0 instructions: 10000002 cycles: 5745489 (Simulation time: 0 hr 5 min 17 sec) 

Heartbeat CPU 0 instructions: 11000002 cycles: 8079760 heartbeat IPC: 0.428399 cumulative IPC: 0.428399 (Simulation time: 0 hr 6 min 3 sec) 
Heartbeat CPU 0 instructions: 12000000 cycles: 10435599 heartbeat IPC: 0.424476 cumulative IPC: 0.426429 (Simulation time: 0 hr 6 min 48 sec) 
Heartbeat CPU 0 instructions: 13000000 cycles: 12866632 heartbeat IPC: 0.411348 cumulative IPC: 0.42128 (Simulation time: 0 hr 7 min 32 sec) 
Heartbeat CPU 0 instructions: 14000000 cycles: 15244606 heartbeat IPC: 0.420526 cumulative IPC: 0.421092 (Simulation time: 0 hr 8 min 15 sec) 
Heartbeat CPU 0 instructions: 15000000 cycles: 17595618 heartbeat IPC: 0.425349 cumulative IPC: 0.421936 (Simulation time: 0 hr 8 min 58 sec) 
Heartbeat CPU 0 instructions: 16000000 cycles: 19976093 heartbeat IPC: 0.420084 cumulative IPC: 0.421626 (Simulation time: 0 hr 9 min 42 sec) 
Heartbeat CPU 0 instructions: 17000003 cycles: 22368505 heartbeat IPC: 0.417989 cumulative IPC: 0.421103 (Simulation time: 0 hr 10 min 27 sec) 
Heartbeat CPU 0 instructions: 18000000 cycles: 24612402 heartbeat IPC: 0.445652 cumulative IPC: 0.424023 (Simulation time: 0 hr 11 min 10 sec) 
Heartbeat CPU 0 instructions: 19000000 cycles: 27117282 heartbeat IPC: 0.399221 cumulative IPC: 0.421116 (Simulation time: 0 hr 11 min 53 sec) 
Heartbeat CPU 0 instructions: 20000000 cycles: 29620732 heartbeat IPC: 0.399449 cumulative IPC: 0.418844 (Simulation time: 0 hr 12 min 36 sec) 
Heartbeat CPU 0 instructions: 21000001 cycles: 32122235 heartbeat IPC: 0.39976 cumulative IPC: 0.417034 (Simulation time: 0 hr 13 min 20 sec) 
Heartbeat CPU 0 instructions: 22000001 cycles: 34618056 heartbeat IPC: 0.40067 cumulative IPC: 0.415619 (Simulation time: 0 hr 14 min 3 sec) 
Heartbeat CPU 0 instructions: 23000000 cycles: 37109945 heartbeat IPC: 0.401302 cumulative IPC: 0.414482 (Simulation time: 0 hr 14 min 47 sec) 
Heartbeat CPU 0 instructions: 24000000 cycles: 39592832 heartbeat IPC: 0.402757 cumulative IPC: 0.413622 (Simulation time: 0 hr 15 min 30 sec) 
Heartbeat CPU 0 instructions: 25000001 cycles: 42055416 heartbeat IPC: 0.406078 cumulative IPC: 0.41311 (Simulation time: 0 hr 16 min 12 sec) 
Heartbeat CPU 0 instructions: 26000001 cycles: 44327979 heartbeat IPC: 0.440032 cumulative IPC: 0.414696 (Simulation time: 0 hr 16 min 52 sec) 
Heartbeat CPU 0 instructions: 27000003 cycles: 46822809 heartbeat IPC: 0.40083 cumulative IPC: 0.413854 (Simulation time: 0 hr 17 min 34 sec) 
Heartbeat CPU 0 instructions: 28000000 cycles: 49326095 heartbeat IPC: 0.399474 cumulative IPC: 0.413028 (Simulation time: 0 hr 18 min 17 sec) 
Heartbeat CPU 0 instructions: 29000001 cycles: 51827756 heartbeat IPC: 0.399735 cumulative IPC: 0.412306 (Simulation time: 0 hr 19 min 1 sec) 
Heartbeat CPU 0 instructions: 30000001 cycles: 54325160 heartbeat IPC: 0.400416 cumulative IPC: 0.411695 (Simulation time: 0 hr 19 min 48 sec) 
Heartbeat CPU 0 instructions: 31000000 cycles: 56816976 heartbeat IPC: 0.401313 cumulative IPC: 0.411188 (Simulation time: 0 hr 20 min 35 sec) 
Heartbeat CPU 0 instructions: 32000000 cycles: 59302103 heartbeat IPC: 0.402394 cumulative IPC: 0.41078 (Simulation time: 0 hr 21 min 19 sec) 
Heartbeat CPU 0 instructions: 33000001 cycles: 61770175 heartbeat IPC: 0.405175 cumulative IPC: 0.410533 (Simulation time: 0 hr 22 min 6 sec) 
Heartbeat CPU 0 instructions: 34000002 cycles: 64180929 heartbeat IPC: 0.414808 cumulative IPC: 0.41071 (Simulation time: 0 hr 22 min 50 sec) 
Heartbeat CPU 0 instructions: 35000002 cycles: 66644069 heartbeat IPC: 0.405986 cumulative IPC: 0.410519 (Simulation time: 0 hr 23 min 33 sec) 
Heartbeat CPU 0 instructions: 36000000 cycles: 69146908 heartbeat IPC: 0.399545 cumulative IPC: 0.410085 (Simulation time: 0 hr 24 min 6 sec) 
Heartbeat CPU 0 instructions: 37000001 cycles: 72146750 heartbeat IPC: 0.333351 cumulative IPC: 0.406619 (Simulation time: 0 hr 24 min 53 sec) 
Heartbeat CPU 0 instructions: 38000000 cycles: 74777523 heartbeat IPC: 0.380116 cumulative IPC: 0.405609 (Simulation time: 0 hr 25 min 33 sec) 
Heartbeat CPU 0 instructions: 39000000 cycles: 77551903 heartbeat IPC: 0.360441 cumulative IPC: 0.403864 (Simulation time: 0 hr 26 min 12 sec) 
Heartbeat CPU 0 instructions: 40000000 cycles: 80200591 heartbeat IPC: 0.377545 cumulative IPC: 0.402927 (Simulation time: 0 hr 26 min 51 sec) 
Heartbeat CPU 0 instructions: 41000000 cycles: 82836278 heartbeat IPC: 0.379408 cumulative IPC: 0.402123 (Simulation time: 0 hr 27 min 29 sec) 
Heartbeat CPU 0 instructions: 42000002 cycles: 85470069 heartbeat IPC: 0.379682 cumulative IPC: 0.401382 (Simulation time: 0 hr 28 min 8 sec) 
Heartbeat CPU 0 instructions: 43000000 cycles: 88115295 heartbeat IPC: 0.378039 cumulative IPC: 0.400632 (Simulation time: 0 hr 28 min 47 sec) 
Heartbeat CPU 0 instructions: 44000000 cycles: 90734137 heartbeat IPC: 0.381848 cumulative IPC: 0.400053 (Simulation time: 0 hr 29 min 24 sec) 
Heartbeat CPU 0 instructions: 45000001 cycles: 93371478 heartbeat IPC: 0.37917 cumulative IPC: 0.399425 (Simulation time: 0 hr 30 min 6 sec) 
Heartbeat CPU 0 instructions: 46000003 cycles: 95973696 heartbeat IPC: 0.384288 cumulative IPC: 0.398988 (Simulation time: 0 hr 30 min 44 sec) 
Heartbeat CPU 0 instructions: 47000002 cycles: 98580469 heartbeat IPC: 0.383616 cumulative IPC: 0.398557 (Simulation time: 0 hr 31 min 22 sec) 
Heartbeat CPU 0 instructions: 48000000 cycles: 101172534 heartbeat IPC: 0.385792 cumulative IPC: 0.39821 (Simulation time: 0 hr 32 min 0 sec) 
Heartbeat CPU 0 instructions: 49000002 cycles: 103769221 heartbeat IPC: 0.385107 cumulative IPC: 0.397863 (Simulation time: 0 hr 32 min 40 sec) 
Heartbeat CPU 0 instructions: 50000002 cycles: 106369144 heartbeat IPC: 0.384627 cumulative IPC: 0.397521 (Simulation time: 0 hr 33 min 19 sec) 
Heartbeat CPU 0 instructions: 51000003 cycles: 108977710 heartbeat IPC: 0.383353 cumulative IPC: 0.397163 (Simulation time: 0 hr 33 min 57 sec) 
Heartbeat CPU 0 instructions: 52000000 cycles: 111565520 heartbeat IPC: 0.386426 cumulative IPC: 0.3969 (Simulation time: 0 hr 34 min 36 sec) 
Heartbeat CPU 0 instructions: 53000000 cycles: 114144005 heartbeat IPC: 0.387825 cumulative IPC: 0.396684 (Simulation time: 0 hr 35 min 16 sec) 
Heartbeat CPU 0 instructions: 54000000 cycles: 116760976 heartbeat IPC: 0.382121 cumulative IPC: 0.396341 (Simulation time: 0 hr 35 min 53 sec) 
Heartbeat CPU 0 instructions: 55000003 cycles: 119322209 heartbeat IPC: 0.390438 cumulative IPC: 0.396208 (Simulation time: 0 hr 36 min 27 sec) 
Heartbeat CPU 0 instructions: 56000000 cycles: 121700835 heartbeat IPC: 0.42041 cumulative IPC: 0.396704 (Simulation time: 0 hr 37 min 4 sec) 
Heartbeat CPU 0 instructions: 57000002 cycles: 123976119 heartbeat IPC: 0.439506 cumulative IPC: 0.397528 (Simulation time: 0 hr 37 min 47 sec) 
Heartbeat CPU 0 instructions: 58000001 cycles: 125297419 heartbeat IPC: 0.75683 cumulative IPC: 0.401499 (Simulation time: 0 hr 38 min 21 sec) 
Heartbeat CPU 0 instructions: 59000002 cycles: 127529967 heartbeat IPC: 0.447919 cumulative IPC: 0.40235 (Simulation time: 0 hr 38 min 58 sec) 
Heartbeat CPU 0 instructions: 60000000 cycles: 129878752 heartbeat IPC: 0.425751 cumulative IPC: 0.402793 (Simulation time: 0 hr 39 min 42 sec) 
Heartbeat CPU 0 instructions: 61000002 cycles: 132328242 heartbeat IPC: 0.408249 cumulative IPC: 0.402898 (Simulation time: 0 hr 40 min 29 sec) 
Heartbeat CPU 0 instructions: 62000000 cycles: 134694530 heartbeat IPC: 0.422602 cumulative IPC: 0.40326 (Simulation time: 0 hr 41 min 12 sec) 
Heartbeat CPU 0 instructions: 63000000 cycles: 137057047 heartbeat IPC: 0.423277 cumulative IPC: 0.40362 (Simulation time: 0 hr 41 min 59 sec) 
Heartbeat CPU 0 instructions: 64000000 cycles: 139476541 heartbeat IPC: 0.41331 cumulative IPC: 0.403796 (Simulation time: 0 hr 42 min 45 sec) 
Heartbeat CPU 0 instructions: 65000003 cycles: 141800747 heartbeat IPC: 0.430256 cumulative IPC: 0.404248 (Simulation time: 0 hr 43 min 31 sec) 
Heartbeat CPU 0 instructions: 66000002 cycles: 144143980 heartbeat IPC: 0.42676 cumulative IPC: 0.404629 (Simulation time: 0 hr 44 min 14 sec) 
Heartbeat CPU 0 instructions: 67000001 cycles: 146499380 heartbeat IPC: 0.424556 cumulative IPC: 0.404962 (Simulation time: 0 hr 44 min 57 sec) 
Heartbeat CPU 0 instructions: 68000000 cycles: 148947571 heartbeat IPC: 0.408464 cumulative IPC: 0.405022 (Simulation time: 0 hr 45 min 40 sec) 
Heartbeat CPU 0 instructions: 69000001 cycles: 151299853 heartbeat IPC: 0.42512 cumulative IPC: 0.405347 (Simulation time: 0 hr 46 min 21 sec) 
Heartbeat CPU 0 instructions: 70000000 cycles: 153715691 heartbeat IPC: 0.413935 cumulative IPC: 0.405487 (Simulation time: 0 hr 47 min 1 sec) 
Heartbeat CPU 0 instructions: 71000000 cycles: 156101981 heartbeat IPC: 0.419061 cumulative IPC: 0.405702 (Simulation time: 0 hr 47 min 42 sec) 
Heartbeat CPU 0 instructions: 72000000 cycles: 158430966 heartbeat IPC: 0.429372 cumulative IPC: 0.406063 (Simulation time: 0 hr 48 min 21 sec) 
Heartbeat CPU 0 instructions: 73000000 cycles: 160763649 heartbeat IPC: 0.428691 cumulative IPC: 0.406404 (Simulation time: 0 hr 49 min 1 sec) 
Heartbeat CPU 0 instructions: 74000002 cycles: 163148788 heartbeat IPC: 0.419264 cumulative IPC: 0.406599 (Simulation time: 0 hr 49 min 43 sec) 
Heartbeat CPU 0 instructions: 75000000 cycles: 165572237 heartbeat IPC: 0.412634 cumulative IPC: 0.40669 (Simulation time: 0 hr 50 min 26 sec) 
Heartbeat CPU 0 instructions: 76000000 cycles: 167931519 heartbeat IPC: 0.423858 cumulative IPC: 0.40694 (Simulation time: 0 hr 51 min 5 sec) 
Heartbeat CPU 0 instructions: 77000000 cycles: 170366014 heartbeat IPC: 0.410763 cumulative IPC: 0.406997 (Simulation time: 0 hr 51 min 43 sec) 
Heartbeat CPU 0 instructions: 78000002 cycles: 172731095 heartbeat IPC: 0.422819 cumulative IPC: 0.407221 (Simulation time: 0 hr 52 min 19 sec) 
Heartbeat CPU 0 instructions: 79000001 cycles: 175067577 heartbeat IPC: 0.427993 cumulative IPC: 0.407507 (Simulation time: 0 hr 52 min 54 sec) 
Heartbeat CPU 0 instructions: 80000000 cycles: 177398810 heartbeat IPC: 0.428957 cumulative IPC: 0.407799 (Simulation time: 0 hr 53 min 26 sec) 
Heartbeat CPU 0 instructions: 81000000 cycles: 179822494 heartbeat IPC: 0.412595 cumulative IPC: 0.407865 (Simulation time: 0 hr 53 min 59 sec) 
Heartbeat CPU 0 instructions: 82000000 cycles: 182185717 heartbeat IPC: 0.423151 cumulative IPC: 0.40807 (Simulation time: 0 hr 54 min 31 sec) 
Heartbeat CPU 0 instructions: 83000002 cycles: 184506602 heartbeat IPC: 0.430871 cumulative IPC: 0.408366 (Simulation time: 0 hr 55 min 3 sec) 
Heartbeat CPU 0 instructions: 84000000 cycles: 186929154 heartbeat IPC: 0.412787 cumulative IPC: 0.408425 (Simulation time: 0 hr 55 min 30 sec) 
Heartbeat CPU 0 instructions: 85000000 cycles: 189303707 heartbeat IPC: 0.421132 cumulative IPC: 0.40859 (Simulation time: 0 hr 55 min 58 sec) 
Heartbeat CPU 0 instructions: 86000000 cycles: 191653361 heartbeat IPC: 0.425595 cumulative IPC: 0.408805 (Simulation time: 0 hr 56 min 27 sec) 
Heartbeat CPU 0 instructions: 87000001 cycles: 194099680 heartbeat IPC: 0.408778 cumulative IPC: 0.408804 (Simulation time: 0 hr 56 min 56 sec) 
Heartbeat CPU 0 instructions: 88000000 cycles: 196465334 heartbeat IPC: 0.422716 cumulative IPC: 0.408977 (Simulation time: 0 hr 57 min 25 sec) 
Heartbeat CPU 0 instructions: 89000002 cycles: 198790669 heartbeat IPC: 0.430046 cumulative IPC: 0.409231 (Simulation time: 0 hr 57 min 51 sec) 
Heartbeat CPU 0 instructions: 90000002 cycles: 201154463 heartbeat IPC: 0.423049 cumulative IPC: 0.409398 (Simulation time: 0 hr 58 min 18 sec) 
Heartbeat CPU 0 instructions: 91000003 cycles: 203571026 heartbeat IPC: 0.413811 cumulative IPC: 0.409452 (Simulation time: 0 hr 58 min 45 sec) 
Heartbeat CPU 0 instructions: 92000000 cycles: 205929893 heartbeat IPC: 0.423931 cumulative IPC: 0.409622 (Simulation time: 0 hr 59 min 8 sec) 
Heartbeat CPU 0 instructions: 93000001 cycles: 208276633 heartbeat IPC: 0.426123 cumulative IPC: 0.409814 (Simulation time: 0 hr 59 min 32 sec) 
Heartbeat CPU 0 instructions: 94000002 cycles: 210729095 heartbeat IPC: 0.407754 cumulative IPC: 0.409789 (Simulation time: 0 hr 59 min 54 sec) 
Heartbeat CPU 0 instructions: 95000000 cycles: 213089927 heartbeat IPC: 0.423579 cumulative IPC: 0.409946 (Simulation time: 1 hr 0 min 16 sec) 
Heartbeat CPU 0 instructions: 96000000 cycles: 215413218 heartbeat IPC: 0.430424 cumulative IPC: 0.410173 (Simulation time: 1 hr 0 min 37 sec) 
Heartbeat CPU 0 instructions: 97000000 cycles: 217800049 heartbeat IPC: 0.418966 cumulative IPC: 0.410272 (Simulation time: 1 hr 0 min 56 sec) 
Heartbeat CPU 0 instructions: 98000001 cycles: 220200062 heartbeat IPC: 0.416665 cumulative IPC: 0.410343 (Simulation time: 1 hr 1 min 15 sec) 
Heartbeat CPU 0 instructions: 99000002 cycles: 222558651 heartbeat IPC: 0.423983 cumulative IPC: 0.410492 (Simulation time: 1 hr 1 min 33 sec) 
Heartbeat CPU 0 instructions: 100000000 cycles: 224911047 heartbeat IPC: 0.425098 cumulative IPC: 0.410648 (Simulation time: 1 hr 1 min 50 sec) 
Heartbeat CPU 0 instructions: 101000000 cycles: 227326499 heartbeat IPC: 0.414001 cumulative IPC: 0.410685 (Simulation time: 1 hr 2 min 7 sec) 
Heartbeat CPU 0 instructions: 102000000 cycles: 229559262 heartbeat IPC: 0.447876 cumulative IPC: 0.411056 (Simulation time: 1 hr 2 min 21 sec) 
Heartbeat CPU 0 instructions: 103000001 cycles: 232063862 heartbeat IPC: 0.399266 cumulative IPC: 0.410926 (Simulation time: 1 hr 2 min 34 sec) 
Heartbeat CPU 0 instructions: 104000000 cycles: 234566382 heartbeat IPC: 0.399597 cumulative IPC: 0.410802 (Simulation time: 1 hr 2 min 46 sec) 
Heartbeat CPU 0 instructions: 105000000 cycles: 237066255 heartbeat IPC: 0.40002 cumulative IPC: 0.410685 (Simulation time: 1 hr 2 min 58 sec) 
Heartbeat CPU 0 instructions: 106000000 cycles: 239562460 heartbeat IPC: 0.400608 cumulative IPC: 0.410578 (Simulation time: 1 hr 3 min 8 sec) 
Heartbeat CPU 0 instructions: 107000001 cycles: 242053052 heartbeat IPC: 0.401511 cumulative IPC: 0.410482 (Simulation time: 1 hr 3 min 17 sec) 
Heartbeat CPU 0 instructions: 108000000 cycles: 244533458 heartbeat IPC: 0.403159 cumulative IPC: 0.410406 (Simulation time: 1 hr 3 min 26 sec) 
Heartbeat CPU 0 instructions: 109000002 cycles: 246989607 heartbeat IPC: 0.407142 cumulative IPC: 0.410373 (Simulation time: 1 hr 3 min 34 sec) 
Heartbeat CPU 0 instructions: 110000000 cycles: 249309129 heartbeat IPC: 0.431122 cumulative IPC: 0.41057 (Simulation time: 1 hr 3 min 43 sec) 
Finished CPU 0 instructions: 100000000 cycles: 243563666 cummulative IPC: 0.41057 (Simulation time: 1 hr 3 min 43 sec) 

ChampSim completed all CPUs

Region of Interest Statistics

CPU 0 cummulative IPC: 0.41057 instructions: 100000000 cycles: 243563666
LLC TOTAL     ACCESS:     157868  HIT:     133938  MISS:      23930
LLC LOAD      ACCESS:      71023  HIT:      61829  MISS:       9194
LLC RFO       ACCESS:      11273  HIT:       5616  MISS:       5657
LLC PREFETCH  ACCESS:      50719  HIT:      41866  MISS:       8853
LLC WRITEBACK ACCESS:      24853  HIT:      24627  MISS:        226
Insertion Distribution: 
	LOAD 245 0 9624 12 
	RFO 86 0 5644 0 
	PREF 0 249 8933 3 
	WRITEBACK 0 0 0 226 
Total Prefetch Downgrades: 886
