
*** ChampSim Multicore Out-of-Order Simulator ***

Warmup Instructions: 10000000
Simulation Instructions: 100000000
Configuration: 2
Number of CPUs: 1
LLC sets: 2048
LLC ways: 16
Off-chip DRAM Channels: 1 Width: 64-bit Data Rate: 1600 MT/s

CPU 0 runs /datasets/cs240c-wi22-a00-public/data/Assignment2-gz/omnetpp_17B.trace.gz
CPU 0 L1D next line prefetcher
CPU 0 L2C IP-based stride prefetcher
Initialize SRRIP state
Heartbeat CPU 0 instructions: 1000000 cycles: 559591 heartbeat IPC: 1.78702 cumulative IPC: 1.78702 (Simulation time: 0 hr 0 min 24 sec) 
Heartbeat CPU 0 instructions: 2000002 cycles: 1133931 heartbeat IPC: 1.74113 cumulative IPC: 1.76378 (Simulation time: 0 hr 0 min 50 sec) 
Heartbeat CPU 0 instructions: 3000001 cycles: 1769356 heartbeat IPC: 1.57375 cumulative IPC: 1.69553 (Simulation time: 0 hr 1 min 13 sec) 
Heartbeat CPU 0 instructions: 4000000 cycles: 2334546 heartbeat IPC: 1.76931 cumulative IPC: 1.7134 (Simulation time: 0 hr 1 min 39 sec) 
Heartbeat CPU 0 instructions: 5000002 cycles: 2893784 heartbeat IPC: 1.78815 cumulative IPC: 1.72784 (Simulation time: 0 hr 2 min 5 sec) 
Heartbeat CPU 0 instructions: 6000000 cycles: 3472492 heartbeat IPC: 1.72798 cumulative IPC: 1.72787 (Simulation time: 0 hr 2 min 31 sec) 
Heartbeat CPU 0 instructions: 7000000 cycles: 4037100 heartbeat IPC: 1.77114 cumulative IPC: 1.73392 (Simulation time: 0 hr 2 min 56 sec) 
Heartbeat CPU 0 instructions: 8000000 cycles: 4698834 heartbeat IPC: 1.51118 cumulative IPC: 1.70255 (Simulation time: 0 hr 3 min 19 sec) 
Heartbeat CPU 0 instructions: 9000000 cycles: 5360639 heartbeat IPC: 1.51102 cumulative IPC: 1.6789 (Simulation time: 0 hr 3 min 40 sec) 
Heartbeat CPU 0 instructions: 10000001 cycles: 6022209 heartbeat IPC: 1.51156 cumulative IPC: 1.66052 (Simulation time: 0 hr 4 min 3 sec) 

Warmup complete CPU 0 instructions: 10000001 cycles: 6022209 (Simulation time: 0 hr 4 min 3 sec) 

Heartbeat CPU 0 instructions: 11000001 cycles: 7067025 heartbeat IPC: 0.957106 cumulative IPC: 0.957106 (Simulation time: 0 hr 4 min 26 sec) 
Heartbeat CPU 0 instructions: 12000000 cycles: 8111568 heartbeat IPC: 0.957355 cumulative IPC: 0.957231 (Simulation time: 0 hr 4 min 49 sec) 
Heartbeat CPU 0 instructions: 13000000 cycles: 9181500 heartbeat IPC: 0.934639 cumulative IPC: 0.94958 (Simulation time: 0 hr 5 min 11 sec) 
Heartbeat CPU 0 instructions: 14000001 cycles: 10225751 heartbeat IPC: 0.957625 cumulative IPC: 0.951578 (Simulation time: 0 hr 5 min 32 sec) 
Heartbeat CPU 0 instructions: 15000000 cycles: 11269979 heartbeat IPC: 0.957644 cumulative IPC: 0.952785 (Simulation time: 0 hr 5 min 54 sec) 
Heartbeat CPU 0 instructions: 16000000 cycles: 12314016 heartbeat IPC: 0.95782 cumulative IPC: 0.953621 (Simulation time: 0 hr 6 min 16 sec) 
Heartbeat CPU 0 instructions: 17000000 cycles: 13359573 heartbeat IPC: 0.956428 cumulative IPC: 0.954021 (Simulation time: 0 hr 6 min 39 sec) 
Heartbeat CPU 0 instructions: 18000001 cycles: 14400917 heartbeat IPC: 0.960298 cumulative IPC: 0.954801 (Simulation time: 0 hr 7 min 1 sec) 
Heartbeat CPU 0 instructions: 19000002 cycles: 15435837 heartbeat IPC: 0.966259 cumulative IPC: 0.956061 (Simulation time: 0 hr 7 min 21 sec) 
Heartbeat CPU 0 instructions: 20000000 cycles: 18898688 heartbeat IPC: 0.288779 cumulative IPC: 0.77661 (Simulation time: 0 hr 7 min 50 sec) 
Heartbeat CPU 0 instructions: 21000000 cycles: 21472627 heartbeat IPC: 0.38851 cumulative IPC: 0.711955 (Simulation time: 0 hr 8 min 15 sec) 
Heartbeat CPU 0 instructions: 22000002 cycles: 23339865 heartbeat IPC: 0.535551 cumulative IPC: 0.692934 (Simulation time: 0 hr 8 min 39 sec) 
Heartbeat CPU 0 instructions: 23000000 cycles: 26744219 heartbeat IPC: 0.293741 cumulative IPC: 0.627352 (Simulation time: 0 hr 9 min 10 sec) 
Heartbeat CPU 0 instructions: 24000000 cycles: 30150747 heartbeat IPC: 0.293554 cumulative IPC: 0.580226 (Simulation time: 0 hr 9 min 42 sec) 
Heartbeat CPU 0 instructions: 25000001 cycles: 32877893 heartbeat IPC: 0.366684 cumulative IPC: 0.558541 (Simulation time: 0 hr 10 min 11 sec) 
Heartbeat CPU 0 instructions: 26000001 cycles: 34580754 heartbeat IPC: 0.587247 cumulative IPC: 0.560253 (Simulation time: 0 hr 10 min 37 sec) 
Heartbeat CPU 0 instructions: 27000000 cycles: 37979609 heartbeat IPC: 0.294216 cumulative IPC: 0.531958 (Simulation time: 0 hr 11 min 7 sec) 
Heartbeat CPU 0 instructions: 28000000 cycles: 41384204 heartbeat IPC: 0.293721 cumulative IPC: 0.509021 (Simulation time: 0 hr 11 min 37 sec) 
Heartbeat CPU 0 instructions: 29000000 cycles: 44298899 heartbeat IPC: 0.343089 cumulative IPC: 0.496386 (Simulation time: 0 hr 12 min 7 sec) 
Heartbeat CPU 0 instructions: 30000000 cycles: 45815848 heartbeat IPC: 0.659218 cumulative IPC: 0.502593 (Simulation time: 0 hr 12 min 31 sec) 
Heartbeat CPU 0 instructions: 31000000 cycles: 49199465 heartbeat IPC: 0.295542 cumulative IPC: 0.486367 (Simulation time: 0 hr 13 min 1 sec) 
Heartbeat CPU 0 instructions: 32000000 cycles: 52584828 heartbeat IPC: 0.295389 cumulative IPC: 0.472482 (Simulation time: 0 hr 13 min 32 sec) 
Heartbeat CPU 0 instructions: 33000001 cycles: 55678976 heartbeat IPC: 0.323191 cumulative IPC: 0.46318 (Simulation time: 0 hr 14 min 1 sec) 
Heartbeat CPU 0 instructions: 34000000 cycles: 56990879 heartbeat IPC: 0.762251 cumulative IPC: 0.470877 (Simulation time: 0 hr 14 min 24 sec) 
Heartbeat CPU 0 instructions: 35000003 cycles: 60358851 heartbeat IPC: 0.296915 cumulative IPC: 0.460095 (Simulation time: 0 hr 14 min 55 sec) 
Heartbeat CPU 0 instructions: 36000000 cycles: 63774580 heartbeat IPC: 0.292762 cumulative IPC: 0.450198 (Simulation time: 0 hr 15 min 25 sec) 
Heartbeat CPU 0 instructions: 37000001 cycles: 66760315 heartbeat IPC: 0.334926 cumulative IPC: 0.444531 (Simulation time: 0 hr 15 min 53 sec) 
Heartbeat CPU 0 instructions: 38000000 cycles: 68191580 heartbeat IPC: 0.698682 cumulative IPC: 0.450383 (Simulation time: 0 hr 16 min 18 sec) 
Heartbeat CPU 0 instructions: 39000000 cycles: 71562043 heartbeat IPC: 0.296695 cumulative IPC: 0.442479 (Simulation time: 0 hr 16 min 48 sec) 
Heartbeat CPU 0 instructions: 40000000 cycles: 74935934 heartbeat IPC: 0.296394 cumulative IPC: 0.435327 (Simulation time: 0 hr 17 min 19 sec) 
Heartbeat CPU 0 instructions: 41000002 cycles: 77809288 heartbeat IPC: 0.348026 cumulative IPC: 0.431833 (Simulation time: 0 hr 17 min 51 sec) 
Heartbeat CPU 0 instructions: 42000000 cycles: 79341764 heartbeat IPC: 0.652537 cumulative IPC: 0.436446 (Simulation time: 0 hr 18 min 17 sec) 
Heartbeat CPU 0 instructions: 43000003 cycles: 84959837 heartbeat IPC: 0.177998 cumulative IPC: 0.418052 (Simulation time: 0 hr 19 min 1 sec) 
Heartbeat CPU 0 instructions: 44000000 cycles: 86006386 heartbeat IPC: 0.955519 cumulative IPC: 0.425084 (Simulation time: 0 hr 19 min 26 sec) 
Heartbeat CPU 0 instructions: 45000003 cycles: 87049351 heartbeat IPC: 0.958808 cumulative IPC: 0.431954 (Simulation time: 0 hr 19 min 52 sec) 
Heartbeat CPU 0 instructions: 46000001 cycles: 88092418 heartbeat IPC: 0.958709 cumulative IPC: 0.438649 (Simulation time: 0 hr 20 min 17 sec) 
Heartbeat CPU 0 instructions: 47000001 cycles: 89136953 heartbeat IPC: 0.957364 cumulative IPC: 0.445168 (Simulation time: 0 hr 20 min 41 sec) 
Heartbeat CPU 0 instructions: 48000000 cycles: 90180151 heartbeat IPC: 0.95859 cumulative IPC: 0.451532 (Simulation time: 0 hr 21 min 6 sec) 
Heartbeat CPU 0 instructions: 49000000 cycles: 91221957 heartbeat IPC: 0.959872 cumulative IPC: 0.457748 (Simulation time: 0 hr 21 min 30 sec) 
Heartbeat CPU 0 instructions: 50000000 cycles: 92264756 heartbeat IPC: 0.958958 cumulative IPC: 0.463808 (Simulation time: 0 hr 21 min 55 sec) 
Heartbeat CPU 0 instructions: 51000002 cycles: 93307664 heartbeat IPC: 0.958859 cumulative IPC: 0.469723 (Simulation time: 0 hr 22 min 19 sec) 
Heartbeat CPU 0 instructions: 52000000 cycles: 94351903 heartbeat IPC: 0.957633 cumulative IPC: 0.475491 (Simulation time: 0 hr 22 min 44 sec) 
Heartbeat CPU 0 instructions: 53000001 cycles: 95394690 heartbeat IPC: 0.95897 cumulative IPC: 0.481132 (Simulation time: 0 hr 23 min 9 sec) 
Heartbeat CPU 0 instructions: 54000002 cycles: 96462835 heartbeat IPC: 0.936203 cumulative IPC: 0.486507 (Simulation time: 0 hr 23 min 34 sec) 
Heartbeat CPU 0 instructions: 55000003 cycles: 97503110 heartbeat IPC: 0.961285 cumulative IPC: 0.491906 (Simulation time: 0 hr 23 min 58 sec) 
Heartbeat CPU 0 instructions: 56000000 cycles: 99835906 heartbeat IPC: 0.428669 cumulative IPC: 0.490333 (Simulation time: 0 hr 24 min 27 sec) 
Heartbeat CPU 0 instructions: 57000003 cycles: 101930337 heartbeat IPC: 0.477458 cumulative IPC: 0.490052 (Simulation time: 0 hr 24 min 54 sec) 
Heartbeat CPU 0 instructions: 58000000 cycles: 105330734 heartbeat IPC: 0.294082 cumulative IPC: 0.483342 (Simulation time: 0 hr 25 min 26 sec) 
Heartbeat CPU 0 instructions: 59000003 cycles: 108722407 heartbeat IPC: 0.294841 cumulative IPC: 0.477117 (Simulation time: 0 hr 25 min 56 sec) 
Heartbeat CPU 0 instructions: 60000000 cycles: 111201450 heartbeat IPC: 0.40338 cumulative IPC: 0.475379 (Simulation time: 0 hr 26 min 23 sec) 
Heartbeat CPU 0 instructions: 61000001 cycles: 113128335 heartbeat IPC: 0.518973 cumulative IPC: 0.476163 (Simulation time: 0 hr 26 min 52 sec) 
Heartbeat CPU 0 instructions: 62000001 cycles: 116504856 heartbeat IPC: 0.296163 cumulative IPC: 0.470662 (Simulation time: 0 hr 27 min 25 sec) 
Heartbeat CPU 0 instructions: 63000000 cycles: 119885752 heartbeat IPC: 0.295779 cumulative IPC: 0.465469 (Simulation time: 0 hr 27 min 59 sec) 
Heartbeat CPU 0 instructions: 64000000 cycles: 122539409 heartbeat IPC: 0.376838 cumulative IPC: 0.463451 (Simulation time: 0 hr 28 min 27 sec) 
Heartbeat CPU 0 instructions: 65000000 cycles: 124283027 heartbeat IPC: 0.57352 cumulative IPC: 0.465074 (Simulation time: 0 hr 28 min 55 sec) 
Heartbeat CPU 0 instructions: 66000000 cycles: 127651352 heartbeat IPC: 0.296883 cumulative IPC: 0.460416 (Simulation time: 0 hr 29 min 28 sec) 
Heartbeat CPU 0 instructions: 67000001 cycles: 131029984 heartbeat IPC: 0.295978 cumulative IPC: 0.455972 (Simulation time: 0 hr 30 min 1 sec) 
Heartbeat CPU 0 instructions: 68000000 cycles: 133880676 heartbeat IPC: 0.350792 cumulative IPC: 0.453627 (Simulation time: 0 hr 30 min 31 sec) 
Heartbeat CPU 0 instructions: 69000001 cycles: 135432705 heartbeat IPC: 0.644319 cumulative IPC: 0.455914 (Simulation time: 0 hr 30 min 57 sec) 
Heartbeat CPU 0 instructions: 70000001 cycles: 138790180 heartbeat IPC: 0.297843 cumulative IPC: 0.451916 (Simulation time: 0 hr 31 min 28 sec) 
Heartbeat CPU 0 instructions: 71000001 cycles: 142160967 heartbeat IPC: 0.296667 cumulative IPC: 0.448072 (Simulation time: 0 hr 32 min 0 sec) 
Heartbeat CPU 0 instructions: 72000000 cycles: 145018886 heartbeat IPC: 0.349905 cumulative IPC: 0.446054 (Simulation time: 0 hr 32 min 30 sec) 
Heartbeat CPU 0 instructions: 73000000 cycles: 146573642 heartbeat IPC: 0.643188 cumulative IPC: 0.448234 (Simulation time: 0 hr 32 min 59 sec) 
Heartbeat CPU 0 instructions: 74000003 cycles: 149948930 heartbeat IPC: 0.296272 cumulative IPC: 0.444671 (Simulation time: 0 hr 33 min 32 sec) 
Heartbeat CPU 0 instructions: 75000001 cycles: 153331611 heartbeat IPC: 0.295623 cumulative IPC: 0.441248 (Simulation time: 0 hr 34 min 4 sec) 
Heartbeat CPU 0 instructions: 76000000 cycles: 156076697 heartbeat IPC: 0.364287 cumulative IPC: 0.43984 (Simulation time: 0 hr 34 min 34 sec) 
Heartbeat CPU 0 instructions: 77000001 cycles: 157738571 heartbeat IPC: 0.601731 cumulative IPC: 0.441614 (Simulation time: 0 hr 35 min 1 sec) 
Heartbeat CPU 0 instructions: 78000000 cycles: 161104676 heartbeat IPC: 0.297079 cumulative IPC: 0.438476 (Simulation time: 0 hr 35 min 34 sec) 
Heartbeat CPU 0 instructions: 79000000 cycles: 164643309 heartbeat IPC: 0.282595 cumulative IPC: 0.434999 (Simulation time: 0 hr 36 min 7 sec) 
Heartbeat CPU 0 instructions: 80000000 cycles: 166521504 heartbeat IPC: 0.532426 cumulative IPC: 0.436139 (Simulation time: 0 hr 36 min 32 sec) 
Heartbeat CPU 0 instructions: 81000001 cycles: 169039532 heartbeat IPC: 0.397137 cumulative IPC: 0.435537 (Simulation time: 0 hr 37 min 1 sec) 
Heartbeat CPU 0 instructions: 82000000 cycles: 172414140 heartbeat IPC: 0.29633 cumulative IPC: 0.432713 (Simulation time: 0 hr 37 min 31 sec) 
Heartbeat CPU 0 instructions: 83000000 cycles: 175790755 heartbeat IPC: 0.296155 cumulative IPC: 0.429997 (Simulation time: 0 hr 38 min 2 sec) 
Heartbeat CPU 0 instructions: 84000000 cycles: 177634277 heartbeat IPC: 0.54244 cumulative IPC: 0.431205 (Simulation time: 0 hr 38 min 28 sec) 
Heartbeat CPU 0 instructions: 85000003 cycles: 180178328 heartbeat IPC: 0.393075 cumulative IPC: 0.430648 (Simulation time: 0 hr 38 min 57 sec) 
Heartbeat CPU 0 instructions: 86000001 cycles: 183558597 heartbeat IPC: 0.295834 cumulative IPC: 0.428081 (Simulation time: 0 hr 39 min 28 sec) 
Heartbeat CPU 0 instructions: 87000000 cycles: 186927176 heartbeat IPC: 0.296861 cumulative IPC: 0.425638 (Simulation time: 0 hr 39 min 59 sec) 
Heartbeat CPU 0 instructions: 88000000 cycles: 188610234 heartbeat IPC: 0.594157 cumulative IPC: 0.427191 (Simulation time: 0 hr 40 min 25 sec) 
Heartbeat CPU 0 instructions: 89000000 cycles: 193525640 heartbeat IPC: 0.203442 cumulative IPC: 0.421326 (Simulation time: 0 hr 41 min 2 sec) 
Heartbeat CPU 0 instructions: 90000002 cycles: 194569269 heartbeat IPC: 0.958197 cumulative IPC: 0.424297 (Simulation time: 0 hr 41 min 26 sec) 
Heartbeat CPU 0 instructions: 91000001 cycles: 195613662 heartbeat IPC: 0.957493 cumulative IPC: 0.427234 (Simulation time: 0 hr 41 min 52 sec) 
Heartbeat CPU 0 instructions: 92000000 cycles: 196657233 heartbeat IPC: 0.958247 cumulative IPC: 0.430141 (Simulation time: 0 hr 42 min 16 sec) 
Heartbeat CPU 0 instructions: 93000002 cycles: 197701573 heartbeat IPC: 0.957545 cumulative IPC: 0.433015 (Simulation time: 0 hr 42 min 42 sec) 
Heartbeat CPU 0 instructions: 94000001 cycles: 198745401 heartbeat IPC: 0.958011 cumulative IPC: 0.435858 (Simulation time: 0 hr 43 min 7 sec) 
Heartbeat CPU 0 instructions: 95000000 cycles: 199789665 heartbeat IPC: 0.957611 cumulative IPC: 0.43867 (Simulation time: 0 hr 43 min 31 sec) 
Heartbeat CPU 0 instructions: 96000000 cycles: 200834570 heartbeat IPC: 0.957025 cumulative IPC: 0.44145 (Simulation time: 0 hr 43 min 59 sec) 
Heartbeat CPU 0 instructions: 97000002 cycles: 201905462 heartbeat IPC: 0.933803 cumulative IPC: 0.444142 (Simulation time: 0 hr 44 min 23 sec) 
Heartbeat CPU 0 instructions: 98000000 cycles: 202951292 heartbeat IPC: 0.956176 cumulative IPC: 0.446861 (Simulation time: 0 hr 44 min 46 sec) 
Heartbeat CPU 0 instructions: 99000003 cycles: 203989719 heartbeat IPC: 0.962998 cumulative IPC: 0.449569 (Simulation time: 0 hr 45 min 11 sec) 
Heartbeat CPU 0 instructions: 100000000 cycles: 205026193 heartbeat IPC: 0.964807 cumulative IPC: 0.452252 (Simulation time: 0 hr 45 min 34 sec) 
Heartbeat CPU 0 instructions: 101000001 cycles: 206067283 heartbeat IPC: 0.960533 cumulative IPC: 0.454897 (Simulation time: 0 hr 45 min 58 sec) 
Heartbeat CPU 0 instructions: 102000001 cycles: 209399635 heartbeat IPC: 0.300088 cumulative IPC: 0.452361 (Simulation time: 0 hr 46 min 27 sec) 
Heartbeat CPU 0 instructions: 103000001 cycles: 210803328 heartbeat IPC: 0.712407 cumulative IPC: 0.454143 (Simulation time: 0 hr 46 min 51 sec) 
Heartbeat CPU 0 instructions: 104000000 cycles: 213856375 heartbeat IPC: 0.327541 cumulative IPC: 0.452284 (Simulation time: 0 hr 47 min 21 sec) 
Heartbeat CPU 0 instructions: 105000000 cycles: 217218597 heartbeat IPC: 0.297422 cumulative IPC: 0.449818 (Simulation time: 0 hr 47 min 50 sec) 
Heartbeat CPU 0 instructions: 106000000 cycles: 220525472 heartbeat IPC: 0.3024 cumulative IPC: 0.447546 (Simulation time: 0 hr 48 min 19 sec) 
Heartbeat CPU 0 instructions: 107000001 cycles: 222093275 heartbeat IPC: 0.637836 cumulative IPC: 0.448926 (Simulation time: 0 hr 48 min 44 sec) 
Heartbeat CPU 0 instructions: 108000000 cycles: 224975114 heartbeat IPC: 0.347 cumulative IPC: 0.447585 (Simulation time: 0 hr 49 min 12 sec) 
Heartbeat CPU 0 instructions: 109000000 cycles: 228343319 heartbeat IPC: 0.296894 cumulative IPC: 0.445302 (Simulation time: 0 hr 49 min 42 sec) 
Heartbeat CPU 0 instructions: 110000000 cycles: 231691048 heartbeat IPC: 0.29871 cumulative IPC: 0.443127 (Simulation time: 0 hr 50 min 12 sec) 
Finished CPU 0 instructions: 100000003 cycles: 225668844 cummulative IPC: 0.443127 (Simulation time: 0 hr 50 min 12 sec) 

ChampSim completed all CPUs

Region of Interest Statistics

CPU 0 cummulative IPC: 0.443127 instructions: 100000003 cycles: 225668844
LLC TOTAL     ACCESS:    3282879  HIT:     997103  MISS:    2285776
LLC LOAD      ACCESS:    1562627  HIT:     910502  MISS:     652125
LLC RFO       ACCESS:       5220  HIT:       1845  MISS:       3375
LLC PREFETCH  ACCESS:    1698184  HIT:      72513  MISS:    1625671
LLC WRITEBACK ACCESS:      16848  HIT:      12243  MISS:       4605
Insertion Distribution: 
	LOAD 3697 0 414918 361763 
	RFO 0 0 2619 1158 
	PREF 0 0 919321 885555 
	WRITEBACK 0 0 0 4773 
Total Prefetch Downgrades: 458
