
*** ChampSim Multicore Out-of-Order Simulator ***

Warmup Instructions: 10000000
Simulation Instructions: 100000000
Configuration: 2
Number of CPUs: 1
LLC sets: 2048
LLC ways: 16
Off-chip DRAM Channels: 1 Width: 64-bit Data Rate: 1600 MT/s

CPU 0 runs /datasets/cs240c-wi22-a00-public/data/Assignment2-gz/gcc_13B.trace.gz
CPU 0 L1D next line prefetcher
CPU 0 L2C IP-based stride prefetcher
Initialize SRRIP state
Heartbeat CPU 0 instructions: 1000000 cycles: 633312 heartbeat IPC: 1.579 cumulative IPC: 1.579 (Simulation time: 0 hr 0 min 34 sec) 
Heartbeat CPU 0 instructions: 2000001 cycles: 1243585 heartbeat IPC: 1.63861 cumulative IPC: 1.60825 (Simulation time: 0 hr 1 min 4 sec) 
Heartbeat CPU 0 instructions: 3000001 cycles: 1717471 heartbeat IPC: 2.11021 cumulative IPC: 1.74676 (Simulation time: 0 hr 1 min 34 sec) 
Heartbeat CPU 0 instructions: 4000000 cycles: 2191097 heartbeat IPC: 2.11137 cumulative IPC: 1.82557 (Simulation time: 0 hr 2 min 8 sec) 
Heartbeat CPU 0 instructions: 5000002 cycles: 2665217 heartbeat IPC: 2.10917 cumulative IPC: 1.87602 (Simulation time: 0 hr 2 min 42 sec) 
Heartbeat CPU 0 instructions: 6000002 cycles: 3139079 heartbeat IPC: 2.11032 cumulative IPC: 1.91139 (Simulation time: 0 hr 3 min 16 sec) 
Heartbeat CPU 0 instructions: 7000001 cycles: 3614452 heartbeat IPC: 2.10361 cumulative IPC: 1.93667 (Simulation time: 0 hr 3 min 49 sec) 
Heartbeat CPU 0 instructions: 8000000 cycles: 4091356 heartbeat IPC: 2.09686 cumulative IPC: 1.95534 (Simulation time: 0 hr 4 min 21 sec) 
Heartbeat CPU 0 instructions: 9000001 cycles: 4832397 heartbeat IPC: 1.34945 cumulative IPC: 1.86243 (Simulation time: 0 hr 4 min 57 sec) 
Heartbeat CPU 0 instructions: 10000001 cycles: 5537043 heartbeat IPC: 1.41915 cumulative IPC: 1.80602 (Simulation time: 0 hr 5 min 32 sec) 

Warmup complete CPU 0 instructions: 10000001 cycles: 5537043 (Simulation time: 0 hr 5 min 32 sec) 

Heartbeat CPU 0 instructions: 11000000 cycles: 12698999 heartbeat IPC: 0.139627 cumulative IPC: 0.139627 (Simulation time: 0 hr 6 min 23 sec) 
Heartbeat CPU 0 instructions: 12000000 cycles: 19137905 heartbeat IPC: 0.155306 cumulative IPC: 0.147049 (Simulation time: 0 hr 7 min 12 sec) 
Heartbeat CPU 0 instructions: 13000000 cycles: 25155232 heartbeat IPC: 0.166187 cumulative IPC: 0.152919 (Simulation time: 0 hr 7 min 58 sec) 
Heartbeat CPU 0 instructions: 14000000 cycles: 30661775 heartbeat IPC: 0.181602 cumulative IPC: 0.159206 (Simulation time: 0 hr 8 min 46 sec) 
Heartbeat CPU 0 instructions: 15000000 cycles: 33429144 heartbeat IPC: 0.361354 cumulative IPC: 0.179262 (Simulation time: 0 hr 9 min 29 sec) 
Heartbeat CPU 0 instructions: 16000000 cycles: 35764237 heartbeat IPC: 0.428248 cumulative IPC: 0.198497 (Simulation time: 0 hr 10 min 8 sec) 
Heartbeat CPU 0 instructions: 17000000 cycles: 38110131 heartbeat IPC: 0.426277 cumulative IPC: 0.214901 (Simulation time: 0 hr 10 min 47 sec) 
Heartbeat CPU 0 instructions: 18000000 cycles: 40480537 heartbeat IPC: 0.421869 cumulative IPC: 0.228941 (Simulation time: 0 hr 11 min 28 sec) 
Heartbeat CPU 0 instructions: 19000002 cycles: 42888390 heartbeat IPC: 0.415309 cumulative IPC: 0.240955 (Simulation time: 0 hr 12 min 6 sec) 
Heartbeat CPU 0 instructions: 20000000 cycles: 45316634 heartbeat IPC: 0.411819 cumulative IPC: 0.251385 (Simulation time: 0 hr 12 min 44 sec) 
Heartbeat CPU 0 instructions: 21000001 cycles: 47923146 heartbeat IPC: 0.383655 cumulative IPC: 0.259519 (Simulation time: 0 hr 13 min 24 sec) 
Heartbeat CPU 0 instructions: 22000001 cycles: 52538149 heartbeat IPC: 0.216685 cumulative IPC: 0.255313 (Simulation time: 0 hr 14 min 16 sec) 
Heartbeat CPU 0 instructions: 23000002 cycles: 60124912 heartbeat IPC: 0.131809 cumulative IPC: 0.238148 (Simulation time: 0 hr 15 min 11 sec) 
Heartbeat CPU 0 instructions: 24000000 cycles: 67199924 heartbeat IPC: 0.141342 cumulative IPC: 0.227041 (Simulation time: 0 hr 16 min 0 sec) 
Heartbeat CPU 0 instructions: 25000000 cycles: 73658028 heartbeat IPC: 0.154844 cumulative IPC: 0.220196 (Simulation time: 0 hr 16 min 50 sec) 
Heartbeat CPU 0 instructions: 26000001 cycles: 79604461 heartbeat IPC: 0.168168 cumulative IPC: 0.216019 (Simulation time: 0 hr 17 min 39 sec) 
Heartbeat CPU 0 instructions: 27000000 cycles: 84949857 heartbeat IPC: 0.187077 cumulative IPC: 0.214071 (Simulation time: 0 hr 18 min 30 sec) 
Heartbeat CPU 0 instructions: 28000000 cycles: 87717604 heartbeat IPC: 0.361305 cumulative IPC: 0.21903 (Simulation time: 0 hr 19 min 12 sec) 
Heartbeat CPU 0 instructions: 29000000 cycles: 90071592 heartbeat IPC: 0.424811 cumulative IPC: 0.22476 (Simulation time: 0 hr 19 min 48 sec) 
Heartbeat CPU 0 instructions: 30000001 cycles: 92410282 heartbeat IPC: 0.42759 cumulative IPC: 0.23022 (Simulation time: 0 hr 20 min 26 sec) 
Heartbeat CPU 0 instructions: 31000000 cycles: 94776636 heartbeat IPC: 0.422591 cumulative IPC: 0.235322 (Simulation time: 0 hr 21 min 3 sec) 
Heartbeat CPU 0 instructions: 32000000 cycles: 97187380 heartbeat IPC: 0.41481 cumulative IPC: 0.240043 (Simulation time: 0 hr 21 min 39 sec) 
Heartbeat CPU 0 instructions: 33000000 cycles: 99619640 heartbeat IPC: 0.41114 cumulative IPC: 0.244466 (Simulation time: 0 hr 22 min 15 sec) 
Heartbeat CPU 0 instructions: 34000000 cycles: 102986133 heartbeat IPC: 0.297045 cumulative IPC: 0.246282 (Simulation time: 0 hr 22 min 54 sec) 
Heartbeat CPU 0 instructions: 35000000 cycles: 117432009 heartbeat IPC: 0.0692239 cumulative IPC: 0.223424 (Simulation time: 0 hr 24 min 23 sec) 
Heartbeat CPU 0 instructions: 36000000 cycles: 121309933 heartbeat IPC: 0.25787 cumulative IPC: 0.224578 (Simulation time: 0 hr 25 min 1 sec) 
Heartbeat CPU 0 instructions: 37000003 cycles: 125145930 heartbeat IPC: 0.260689 cumulative IPC: 0.225736 (Simulation time: 0 hr 25 min 37 sec) 
Heartbeat CPU 0 instructions: 38000000 cycles: 128972812 heartbeat IPC: 0.261309 cumulative IPC: 0.226839 (Simulation time: 0 hr 26 min 14 sec) 
Heartbeat CPU 0 instructions: 39000000 cycles: 132713763 heartbeat IPC: 0.267312 cumulative IPC: 0.228029 (Simulation time: 0 hr 26 min 50 sec) 
Heartbeat CPU 0 instructions: 40000000 cycles: 136363257 heartbeat IPC: 0.274011 cumulative IPC: 0.229312 (Simulation time: 0 hr 27 min 25 sec) 
Heartbeat CPU 0 instructions: 41000000 cycles: 139986796 heartbeat IPC: 0.275973 cumulative IPC: 0.230569 (Simulation time: 0 hr 28 min 0 sec) 
Heartbeat CPU 0 instructions: 42000000 cycles: 143638227 heartbeat IPC: 0.273865 cumulative IPC: 0.231714 (Simulation time: 0 hr 28 min 37 sec) 
Heartbeat CPU 0 instructions: 43000002 cycles: 147297518 heartbeat IPC: 0.273278 cumulative IPC: 0.232787 (Simulation time: 0 hr 29 min 14 sec) 
Heartbeat CPU 0 instructions: 44000000 cycles: 150951562 heartbeat IPC: 0.273669 cumulative IPC: 0.233814 (Simulation time: 0 hr 29 min 50 sec) 
Heartbeat CPU 0 instructions: 45000001 cycles: 154575865 heartbeat IPC: 0.275915 cumulative IPC: 0.234838 (Simulation time: 0 hr 30 min 26 sec) 
Heartbeat CPU 0 instructions: 46000001 cycles: 158176976 heartbeat IPC: 0.277692 cumulative IPC: 0.235849 (Simulation time: 0 hr 31 min 0 sec) 
Heartbeat CPU 0 instructions: 47000001 cycles: 161766175 heartbeat IPC: 0.278614 cumulative IPC: 0.236832 (Simulation time: 0 hr 31 min 34 sec) 
Heartbeat CPU 0 instructions: 48000000 cycles: 165329381 heartbeat IPC: 0.280646 cumulative IPC: 0.237809 (Simulation time: 0 hr 32 min 8 sec) 
Heartbeat CPU 0 instructions: 49000000 cycles: 168910351 heartbeat IPC: 0.279254 cumulative IPC: 0.238717 (Simulation time: 0 hr 32 min 43 sec) 
Heartbeat CPU 0 instructions: 50000003 cycles: 172489678 heartbeat IPC: 0.279383 cumulative IPC: 0.239589 (Simulation time: 0 hr 33 min 23 sec) 
Heartbeat CPU 0 instructions: 51000001 cycles: 176068675 heartbeat IPC: 0.279407 cumulative IPC: 0.240425 (Simulation time: 0 hr 33 min 59 sec) 
Heartbeat CPU 0 instructions: 52000000 cycles: 179632904 heartbeat IPC: 0.280565 cumulative IPC: 0.241246 (Simulation time: 0 hr 34 min 36 sec) 
Heartbeat CPU 0 instructions: 53000001 cycles: 183213539 heartbeat IPC: 0.27928 cumulative IPC: 0.242013 (Simulation time: 0 hr 35 min 13 sec) 
Heartbeat CPU 0 instructions: 54000000 cycles: 186787368 heartbeat IPC: 0.279812 cumulative IPC: 0.242758 (Simulation time: 0 hr 35 min 49 sec) 
Heartbeat CPU 0 instructions: 55000000 cycles: 190370838 heartbeat IPC: 0.279059 cumulative IPC: 0.243462 (Simulation time: 0 hr 36 min 26 sec) 
Heartbeat CPU 0 instructions: 56000000 cycles: 193944007 heartbeat IPC: 0.279864 cumulative IPC: 0.244152 (Simulation time: 0 hr 37 min 1 sec) 
Heartbeat CPU 0 instructions: 57000002 cycles: 197483497 heartbeat IPC: 0.282527 cumulative IPC: 0.24486 (Simulation time: 0 hr 37 min 37 sec) 
Heartbeat CPU 0 instructions: 58000001 cycles: 201028768 heartbeat IPC: 0.282066 cumulative IPC: 0.245535 (Simulation time: 0 hr 38 min 14 sec) 
Heartbeat CPU 0 instructions: 59000003 cycles: 204547122 heartbeat IPC: 0.284224 cumulative IPC: 0.246219 (Simulation time: 0 hr 38 min 51 sec) 
Heartbeat CPU 0 instructions: 60000000 cycles: 208062385 heartbeat IPC: 0.284473 cumulative IPC: 0.246883 (Simulation time: 0 hr 39 min 28 sec) 
Heartbeat CPU 0 instructions: 61000000 cycles: 211573579 heartbeat IPC: 0.284803 cumulative IPC: 0.247529 (Simulation time: 0 hr 40 min 5 sec) 
Heartbeat CPU 0 instructions: 62000003 cycles: 215081416 heartbeat IPC: 0.285077 cumulative IPC: 0.248157 (Simulation time: 0 hr 40 min 43 sec) 
Heartbeat CPU 0 instructions: 63000001 cycles: 218591746 heartbeat IPC: 0.284873 cumulative IPC: 0.248762 (Simulation time: 0 hr 41 min 21 sec) 
Heartbeat CPU 0 instructions: 64000000 cycles: 222121941 heartbeat IPC: 0.28327 cumulative IPC: 0.249325 (Simulation time: 0 hr 41 min 59 sec) 
Heartbeat CPU 0 instructions: 65000000 cycles: 225692278 heartbeat IPC: 0.280086 cumulative IPC: 0.249824 (Simulation time: 0 hr 42 min 37 sec) 
Heartbeat CPU 0 instructions: 66000000 cycles: 229298366 heartbeat IPC: 0.277309 cumulative IPC: 0.250267 (Simulation time: 0 hr 43 min 16 sec) 
Heartbeat CPU 0 instructions: 67000001 cycles: 233059716 heartbeat IPC: 0.265862 cumulative IPC: 0.250524 (Simulation time: 0 hr 43 min 57 sec) 
Heartbeat CPU 0 instructions: 68000000 cycles: 236839943 heartbeat IPC: 0.264534 cumulative IPC: 0.250753 (Simulation time: 0 hr 44 min 37 sec) 
Heartbeat CPU 0 instructions: 69000003 cycles: 240619653 heartbeat IPC: 0.264571 cumulative IPC: 0.250976 (Simulation time: 0 hr 45 min 16 sec) 
Heartbeat CPU 0 instructions: 70000000 cycles: 244441577 heartbeat IPC: 0.261648 cumulative IPC: 0.251146 (Simulation time: 0 hr 45 min 56 sec) 
Heartbeat CPU 0 instructions: 71000002 cycles: 248058797 heartbeat IPC: 0.276456 cumulative IPC: 0.251524 (Simulation time: 0 hr 46 min 34 sec) 
Heartbeat CPU 0 instructions: 72000000 cycles: 251649279 heartbeat IPC: 0.278514 cumulative IPC: 0.251918 (Simulation time: 0 hr 47 min 13 sec) 
Heartbeat CPU 0 instructions: 73000003 cycles: 255237044 heartbeat IPC: 0.278726 cumulative IPC: 0.252303 (Simulation time: 0 hr 47 min 51 sec) 
Heartbeat CPU 0 instructions: 74000000 cycles: 258848573 heartbeat IPC: 0.27689 cumulative IPC: 0.252653 (Simulation time: 0 hr 48 min 29 sec) 
Heartbeat CPU 0 instructions: 75000000 cycles: 262462731 heartbeat IPC: 0.27669 cumulative IPC: 0.252991 (Simulation time: 0 hr 49 min 7 sec) 
Heartbeat CPU 0 instructions: 76000000 cycles: 266092090 heartbeat IPC: 0.275531 cumulative IPC: 0.253305 (Simulation time: 0 hr 49 min 45 sec) 
Heartbeat CPU 0 instructions: 77000000 cycles: 269696180 heartbeat IPC: 0.277463 cumulative IPC: 0.253635 (Simulation time: 0 hr 50 min 22 sec) 
Heartbeat CPU 0 instructions: 78000003 cycles: 273247228 heartbeat IPC: 0.281608 cumulative IPC: 0.254006 (Simulation time: 0 hr 50 min 58 sec) 
Heartbeat CPU 0 instructions: 79000000 cycles: 276824017 heartbeat IPC: 0.27958 cumulative IPC: 0.254343 (Simulation time: 0 hr 51 min 33 sec) 
Heartbeat CPU 0 instructions: 80000000 cycles: 280370165 heartbeat IPC: 0.281996 cumulative IPC: 0.2547 (Simulation time: 0 hr 52 min 7 sec) 
Heartbeat CPU 0 instructions: 81000001 cycles: 283903544 heartbeat IPC: 0.283015 cumulative IPC: 0.255059 (Simulation time: 0 hr 52 min 40 sec) 
Heartbeat CPU 0 instructions: 82000000 cycles: 287439344 heartbeat IPC: 0.282821 cumulative IPC: 0.255408 (Simulation time: 0 hr 53 min 11 sec) 
Heartbeat CPU 0 instructions: 83000003 cycles: 290996122 heartbeat IPC: 0.281154 cumulative IPC: 0.255728 (Simulation time: 0 hr 53 min 42 sec) 
Heartbeat CPU 0 instructions: 84000000 cycles: 294535547 heartbeat IPC: 0.282531 cumulative IPC: 0.256057 (Simulation time: 0 hr 54 min 12 sec) 
Heartbeat CPU 0 instructions: 85000000 cycles: 298069049 heartbeat IPC: 0.283005 cumulative IPC: 0.256382 (Simulation time: 0 hr 54 min 43 sec) 
Heartbeat CPU 0 instructions: 86000001 cycles: 301614267 heartbeat IPC: 0.28207 cumulative IPC: 0.25669 (Simulation time: 0 hr 55 min 9 sec) 
Heartbeat CPU 0 instructions: 87000001 cycles: 305165410 heartbeat IPC: 0.281599 cumulative IPC: 0.256985 (Simulation time: 0 hr 55 min 35 sec) 
Heartbeat CPU 0 instructions: 88000000 cycles: 308706007 heartbeat IPC: 0.282438 cumulative IPC: 0.257282 (Simulation time: 0 hr 56 min 1 sec) 
Heartbeat CPU 0 instructions: 89000003 cycles: 312244590 heartbeat IPC: 0.2826 cumulative IPC: 0.257574 (Simulation time: 0 hr 56 min 28 sec) 
Heartbeat CPU 0 instructions: 90000000 cycles: 315784021 heartbeat IPC: 0.28253 cumulative IPC: 0.257859 (Simulation time: 0 hr 56 min 53 sec) 
Heartbeat CPU 0 instructions: 91000000 cycles: 319311763 heartbeat IPC: 0.283467 cumulative IPC: 0.258147 (Simulation time: 0 hr 57 min 19 sec) 
Heartbeat CPU 0 instructions: 92000000 cycles: 322823394 heartbeat IPC: 0.284768 cumulative IPC: 0.258442 (Simulation time: 0 hr 57 min 44 sec) 
Heartbeat CPU 0 instructions: 93000001 cycles: 326339741 heartbeat IPC: 0.284386 cumulative IPC: 0.258726 (Simulation time: 0 hr 58 min 9 sec) 
Heartbeat CPU 0 instructions: 94000003 cycles: 329845506 heartbeat IPC: 0.285245 cumulative IPC: 0.259013 (Simulation time: 0 hr 58 min 33 sec) 
Heartbeat CPU 0 instructions: 95000002 cycles: 333359222 heartbeat IPC: 0.284599 cumulative IPC: 0.259287 (Simulation time: 0 hr 58 min 56 sec) 
Heartbeat CPU 0 instructions: 96000000 cycles: 336854903 heartbeat IPC: 0.286067 cumulative IPC: 0.259569 (Simulation time: 0 hr 59 min 18 sec) 
Heartbeat CPU 0 instructions: 97000000 cycles: 340346243 heartbeat IPC: 0.286423 cumulative IPC: 0.259849 (Simulation time: 0 hr 59 min 39 sec) 
Heartbeat CPU 0 instructions: 98000000 cycles: 343831790 heartbeat IPC: 0.286899 cumulative IPC: 0.260128 (Simulation time: 1 hr 0 min 0 sec) 
Heartbeat CPU 0 instructions: 99000000 cycles: 347336618 heartbeat IPC: 0.285321 cumulative IPC: 0.260386 (Simulation time: 1 hr 0 min 22 sec) 
Heartbeat CPU 0 instructions: 100000000 cycles: 350874621 heartbeat IPC: 0.282645 cumulative IPC: 0.260615 (Simulation time: 1 hr 0 min 41 sec) 
Heartbeat CPU 0 instructions: 101000003 cycles: 354387647 heartbeat IPC: 0.284656 cumulative IPC: 0.260857 (Simulation time: 1 hr 0 min 58 sec) 
Heartbeat CPU 0 instructions: 102000000 cycles: 358441926 heartbeat IPC: 0.246652 cumulative IPC: 0.260693 (Simulation time: 1 hr 1 min 15 sec) 
Heartbeat CPU 0 instructions: 103000002 cycles: 362781779 heartbeat IPC: 0.230423 cumulative IPC: 0.260326 (Simulation time: 1 hr 1 min 32 sec) 
Heartbeat CPU 0 instructions: 104000000 cycles: 366890658 heartbeat IPC: 0.243375 cumulative IPC: 0.260133 (Simulation time: 1 hr 1 min 49 sec) 
Heartbeat CPU 0 instructions: 105000000 cycles: 370784652 heartbeat IPC: 0.256806 cumulative IPC: 0.260098 (Simulation time: 1 hr 2 min 5 sec) 
Heartbeat CPU 0 instructions: 106000002 cycles: 374661565 heartbeat IPC: 0.257938 cumulative IPC: 0.260075 (Simulation time: 1 hr 2 min 19 sec) 
Heartbeat CPU 0 instructions: 107000001 cycles: 378587003 heartbeat IPC: 0.254748 cumulative IPC: 0.260019 (Simulation time: 1 hr 2 min 33 sec) 
Heartbeat CPU 0 instructions: 108000000 cycles: 382400117 heartbeat IPC: 0.262253 cumulative IPC: 0.260041 (Simulation time: 1 hr 2 min 45 sec) 
Heartbeat CPU 0 instructions: 109000000 cycles: 386126118 heartbeat IPC: 0.268384 cumulative IPC: 0.260123 (Simulation time: 1 hr 2 min 57 sec) 
Heartbeat CPU 0 instructions: 110000002 cycles: 389827525 heartbeat IPC: 0.270168 cumulative IPC: 0.26022 (Simulation time: 1 hr 3 min 8 sec) 
Finished CPU 0 instructions: 100000001 cycles: 384290482 cummulative IPC: 0.26022 (Simulation time: 1 hr 3 min 8 sec) 

ChampSim completed all CPUs

Region of Interest Statistics

CPU 0 cummulative IPC: 0.26022 instructions: 100000001 cycles: 384290482
LLC TOTAL     ACCESS:    2540671  HIT:     406246  MISS:    2134425
LLC LOAD      ACCESS:     647816  HIT:      35029  MISS:     612787
LLC RFO       ACCESS:     277592  HIT:      21443  MISS:     256149
LLC PREFETCH  ACCESS:    1132207  HIT:      41672  MISS:    1090535
LLC WRITEBACK ACCESS:     483056  HIT:     308102  MISS:     174954
Insertion Distribution: 
	LOAD 24061 0 390120 302266 
	RFO 16225 0 210992 152417 
	PREF 0 27035 736426 600389 
	WRITEBACK 0 0 0 259967 
Total Prefetch Downgrades: 22537
