
*** ChampSim Multicore Out-of-Order Simulator ***

Warmup Instructions: 10000000
Simulation Instructions: 100000000
Configuration: 2
Number of CPUs: 1
LLC sets: 2048
LLC ways: 16
Off-chip DRAM Channels: 1 Width: 64-bit Data Rate: 1600 MT/s

CPU 0 runs /datasets/cs240c-wi22-a00-public/data/Assignment2-gz/GemsFDTD_716B.trace.gz
CPU 0 L1D next line prefetcher
CPU 0 L2C IP-based stride prefetcher
Initialize SRRIP state
Heartbeat CPU 0 instructions: 1000000 cycles: 415045 heartbeat IPC: 2.40938 cumulative IPC: 2.40938 (Simulation time: 0 hr 0 min 29 sec) 
Heartbeat CPU 0 instructions: 2000003 cycles: 829979 heartbeat IPC: 2.41003 cumulative IPC: 2.4097 (Simulation time: 0 hr 0 min 57 sec) 
Heartbeat CPU 0 instructions: 3000000 cycles: 1280233 heartbeat IPC: 2.22096 cumulative IPC: 2.34332 (Simulation time: 0 hr 1 min 28 sec) 
Heartbeat CPU 0 instructions: 4000000 cycles: 1737265 heartbeat IPC: 2.18803 cumulative IPC: 2.30247 (Simulation time: 0 hr 1 min 58 sec) 
Heartbeat CPU 0 instructions: 5000000 cycles: 2152246 heartbeat IPC: 2.40975 cumulative IPC: 2.32315 (Simulation time: 0 hr 2 min 29 sec) 
Heartbeat CPU 0 instructions: 6000000 cycles: 2567262 heartbeat IPC: 2.40955 cumulative IPC: 2.33712 (Simulation time: 0 hr 2 min 56 sec) 
Heartbeat CPU 0 instructions: 7000000 cycles: 2982265 heartbeat IPC: 2.40962 cumulative IPC: 2.34721 (Simulation time: 0 hr 3 min 21 sec) 
Heartbeat CPU 0 instructions: 8000000 cycles: 3395192 heartbeat IPC: 2.42174 cumulative IPC: 2.35627 (Simulation time: 0 hr 3 min 48 sec) 
Heartbeat CPU 0 instructions: 9000003 cycles: 3840386 heartbeat IPC: 2.24622 cumulative IPC: 2.34352 (Simulation time: 0 hr 4 min 20 sec) 
Heartbeat CPU 0 instructions: 10000002 cycles: 4355033 heartbeat IPC: 1.94308 cumulative IPC: 2.29619 (Simulation time: 0 hr 4 min 56 sec) 

Warmup complete CPU 0 instructions: 10000002 cycles: 4355033 (Simulation time: 0 hr 4 min 56 sec) 

Heartbeat CPU 0 instructions: 11000000 cycles: 7795551 heartbeat IPC: 0.290653 cumulative IPC: 0.290653 (Simulation time: 0 hr 5 min 52 sec) 
Heartbeat CPU 0 instructions: 12000000 cycles: 11218340 heartbeat IPC: 0.292159 cumulative IPC: 0.291404 (Simulation time: 0 hr 6 min 49 sec) 
Heartbeat CPU 0 instructions: 13000000 cycles: 14651307 heartbeat IPC: 0.291293 cumulative IPC: 0.291367 (Simulation time: 0 hr 7 min 42 sec) 
Heartbeat CPU 0 instructions: 14000000 cycles: 18252181 heartbeat IPC: 0.27771 cumulative IPC: 0.287829 (Simulation time: 0 hr 8 min 35 sec) 
Heartbeat CPU 0 instructions: 15000000 cycles: 21965642 heartbeat IPC: 0.269291 cumulative IPC: 0.28392 (Simulation time: 0 hr 9 min 30 sec) 
Heartbeat CPU 0 instructions: 16000000 cycles: 25684827 heartbeat IPC: 0.268876 cumulative IPC: 0.281297 (Simulation time: 0 hr 10 min 26 sec) 
Heartbeat CPU 0 instructions: 17000002 cycles: 29410147 heartbeat IPC: 0.268434 cumulative IPC: 0.279384 (Simulation time: 0 hr 11 min 21 sec) 
Heartbeat CPU 0 instructions: 18000003 cycles: 33124820 heartbeat IPC: 0.269203 cumulative IPC: 0.27807 (Simulation time: 0 hr 12 min 16 sec) 
Heartbeat CPU 0 instructions: 19000000 cycles: 36842832 heartbeat IPC: 0.26896 cumulative IPC: 0.277027 (Simulation time: 0 hr 13 min 11 sec) 
Heartbeat CPU 0 instructions: 20000000 cycles: 39463374 heartbeat IPC: 0.3816 cumulative IPC: 0.284833 (Simulation time: 0 hr 14 min 0 sec) 
Heartbeat CPU 0 instructions: 21000000 cycles: 41760977 heartbeat IPC: 0.435236 cumulative IPC: 0.294071 (Simulation time: 0 hr 14 min 45 sec) 
Heartbeat CPU 0 instructions: 22000000 cycles: 44035680 heartbeat IPC: 0.439618 cumulative IPC: 0.302414 (Simulation time: 0 hr 15 min 31 sec) 
Heartbeat CPU 0 instructions: 23000002 cycles: 46304161 heartbeat IPC: 0.440825 cumulative IPC: 0.309899 (Simulation time: 0 hr 16 min 17 sec) 
Heartbeat CPU 0 instructions: 24000000 cycles: 48603532 heartbeat IPC: 0.434901 cumulative IPC: 0.316395 (Simulation time: 0 hr 17 min 4 sec) 
Heartbeat CPU 0 instructions: 25000002 cycles: 50900853 heartbeat IPC: 0.43529 cumulative IPC: 0.322263 (Simulation time: 0 hr 17 min 50 sec) 
Heartbeat CPU 0 instructions: 26000002 cycles: 52867692 heartbeat IPC: 0.50843 cumulative IPC: 0.329811 (Simulation time: 0 hr 18 min 39 sec) 
Heartbeat CPU 0 instructions: 27000002 cycles: 54826660 heartbeat IPC: 0.510473 cumulative IPC: 0.336823 (Simulation time: 0 hr 19 min 25 sec) 
Heartbeat CPU 0 instructions: 28000000 cycles: 56667510 heartbeat IPC: 0.543226 cumulative IPC: 0.344086 (Simulation time: 0 hr 20 min 15 sec) 
Heartbeat CPU 0 instructions: 29000003 cycles: 58547376 heartbeat IPC: 0.531954 cumulative IPC: 0.350603 (Simulation time: 0 hr 21 min 0 sec) 
Heartbeat CPU 0 instructions: 30000002 cycles: 60432126 heartbeat IPC: 0.530574 cumulative IPC: 0.356652 (Simulation time: 0 hr 21 min 45 sec) 
Heartbeat CPU 0 instructions: 31000002 cycles: 61845476 heartbeat IPC: 0.707539 cumulative IPC: 0.365278 (Simulation time: 0 hr 22 min 27 sec) 
Heartbeat CPU 0 instructions: 32000000 cycles: 63247486 heartbeat IPC: 0.71326 cumulative IPC: 0.373562 (Simulation time: 0 hr 23 min 12 sec) 
Heartbeat CPU 0 instructions: 33000000 cycles: 64653458 heartbeat IPC: 0.711252 cumulative IPC: 0.381436 (Simulation time: 0 hr 23 min 55 sec) 
Heartbeat CPU 0 instructions: 34000001 cycles: 66061592 heartbeat IPC: 0.71016 cumulative IPC: 0.388938 (Simulation time: 0 hr 24 min 40 sec) 
Heartbeat CPU 0 instructions: 35000001 cycles: 67463565 heartbeat IPC: 0.71328 cumulative IPC: 0.396143 (Simulation time: 0 hr 25 min 23 sec) 
Heartbeat CPU 0 instructions: 36000000 cycles: 68943558 heartbeat IPC: 0.675678 cumulative IPC: 0.402548 (Simulation time: 0 hr 26 min 8 sec) 
Heartbeat CPU 0 instructions: 37000002 cycles: 70480304 heartbeat IPC: 0.650727 cumulative IPC: 0.408316 (Simulation time: 0 hr 26 min 57 sec) 
Heartbeat CPU 0 instructions: 38000002 cycles: 71900947 heartbeat IPC: 0.703907 cumulative IPC: 0.414533 (Simulation time: 0 hr 27 min 40 sec) 
Heartbeat CPU 0 instructions: 39000000 cycles: 73340066 heartbeat IPC: 0.694868 cumulative IPC: 0.420381 (Simulation time: 0 hr 28 min 23 sec) 
Heartbeat CPU 0 instructions: 40000000 cycles: 74771874 heartbeat IPC: 0.698418 cumulative IPC: 0.426034 (Simulation time: 0 hr 29 min 10 sec) 
Heartbeat CPU 0 instructions: 41000003 cycles: 76204280 heartbeat IPC: 0.698128 cumulative IPC: 0.431459 (Simulation time: 0 hr 29 min 54 sec) 
Heartbeat CPU 0 instructions: 42000000 cycles: 77628104 heartbeat IPC: 0.702332 cumulative IPC: 0.436722 (Simulation time: 0 hr 30 min 38 sec) 
Heartbeat CPU 0 instructions: 43000002 cycles: 80528653 heartbeat IPC: 0.344763 cumulative IPC: 0.433221 (Simulation time: 0 hr 31 min 28 sec) 
Heartbeat CPU 0 instructions: 44000000 cycles: 83963871 heartbeat IPC: 0.291102 cumulative IPC: 0.427088 (Simulation time: 0 hr 32 min 21 sec) 
Heartbeat CPU 0 instructions: 45000003 cycles: 87391328 heartbeat IPC: 0.291762 cumulative IPC: 0.421502 (Simulation time: 0 hr 33 min 15 sec) 
Heartbeat CPU 0 instructions: 46000000 cycles: 90822379 heartbeat IPC: 0.291455 cumulative IPC: 0.416342 (Simulation time: 0 hr 34 min 13 sec) 
Heartbeat CPU 0 instructions: 47000000 cycles: 94253987 heartbeat IPC: 0.291409 cumulative IPC: 0.411573 (Simulation time: 0 hr 35 min 10 sec) 
Heartbeat CPU 0 instructions: 48000000 cycles: 97913196 heartbeat IPC: 0.273283 cumulative IPC: 0.406164 (Simulation time: 0 hr 36 min 3 sec) 
Heartbeat CPU 0 instructions: 49000000 cycles: 101607518 heartbeat IPC: 0.270686 cumulative IPC: 0.401018 (Simulation time: 0 hr 36 min 56 sec) 
Heartbeat CPU 0 instructions: 50000001 cycles: 105307359 heartbeat IPC: 0.270282 cumulative IPC: 0.396227 (Simulation time: 0 hr 37 min 55 sec) 
Heartbeat CPU 0 instructions: 51000003 cycles: 109005940 heartbeat IPC: 0.270375 cumulative IPC: 0.391779 (Simulation time: 0 hr 38 min 51 sec) 
Heartbeat CPU 0 instructions: 52000000 cycles: 112693389 heartbeat IPC: 0.271189 cumulative IPC: 0.387674 (Simulation time: 0 hr 39 min 46 sec) 
Heartbeat CPU 0 instructions: 53000002 cycles: 116465539 heartbeat IPC: 0.265101 cumulative IPC: 0.38355 (Simulation time: 0 hr 40 min 41 sec) 
Heartbeat CPU 0 instructions: 54000001 cycles: 118341207 heartbeat IPC: 0.533143 cumulative IPC: 0.386012 (Simulation time: 0 hr 41 min 30 sec) 
Heartbeat CPU 0 instructions: 55000002 cycles: 120225215 heartbeat IPC: 0.530784 cumulative IPC: 0.388366 (Simulation time: 0 hr 42 min 17 sec) 
Heartbeat CPU 0 instructions: 56000000 cycles: 122155811 heartbeat IPC: 0.517974 cumulative IPC: 0.39049 (Simulation time: 0 hr 43 min 4 sec) 
Heartbeat CPU 0 instructions: 57000002 cycles: 124067929 heartbeat IPC: 0.522981 cumulative IPC: 0.392606 (Simulation time: 0 hr 43 min 47 sec) 
Heartbeat CPU 0 instructions: 58000001 cycles: 125912912 heartbeat IPC: 0.54201 cumulative IPC: 0.394874 (Simulation time: 0 hr 44 min 30 sec) 
Heartbeat CPU 0 instructions: 59000002 cycles: 127753924 heartbeat IPC: 0.54318 cumulative IPC: 0.397086 (Simulation time: 0 hr 45 min 15 sec) 
Heartbeat CPU 0 instructions: 60000000 cycles: 129372010 heartbeat IPC: 0.618013 cumulative IPC: 0.399946 (Simulation time: 0 hr 45 min 59 sec) 
Heartbeat CPU 0 instructions: 61000002 cycles: 130988157 heartbeat IPC: 0.618757 cumulative IPC: 0.402738 (Simulation time: 0 hr 46 min 42 sec) 
Heartbeat CPU 0 instructions: 62000000 cycles: 132611519 heartbeat IPC: 0.616004 cumulative IPC: 0.405438 (Simulation time: 0 hr 47 min 25 sec) 
Heartbeat CPU 0 instructions: 63000000 cycles: 134253377 heartbeat IPC: 0.609066 cumulative IPC: 0.408011 (Simulation time: 0 hr 48 min 9 sec) 
Heartbeat CPU 0 instructions: 64000000 cycles: 135878990 heartbeat IPC: 0.615153 cumulative IPC: 0.410572 (Simulation time: 0 hr 48 min 50 sec) 
Heartbeat CPU 0 instructions: 65000001 cycles: 137292629 heartbeat IPC: 0.707395 cumulative IPC: 0.413728 (Simulation time: 0 hr 49 min 31 sec) 
Heartbeat CPU 0 instructions: 66000003 cycles: 138706997 heartbeat IPC: 0.707031 cumulative IPC: 0.416816 (Simulation time: 0 hr 50 min 10 sec) 
Heartbeat CPU 0 instructions: 67000003 cycles: 140121689 heartbeat IPC: 0.706868 cumulative IPC: 0.419838 (Simulation time: 0 hr 50 min 48 sec) 
Heartbeat CPU 0 instructions: 68000000 cycles: 141526513 heartbeat IPC: 0.711831 cumulative IPC: 0.422828 (Simulation time: 0 hr 51 min 23 sec) 
Heartbeat CPU 0 instructions: 69000002 cycles: 142934698 heartbeat IPC: 0.710135 cumulative IPC: 0.425748 (Simulation time: 0 hr 51 min 57 sec) 
Heartbeat CPU 0 instructions: 70000000 cycles: 144499706 heartbeat IPC: 0.638973 cumulative IPC: 0.428129 (Simulation time: 0 hr 52 min 30 sec) 
Heartbeat CPU 0 instructions: 71000000 cycles: 145923508 heartbeat IPC: 0.702345 cumulative IPC: 0.430887 (Simulation time: 0 hr 53 min 3 sec) 
Heartbeat CPU 0 instructions: 72000000 cycles: 147346229 heartbeat IPC: 0.702878 cumulative IPC: 0.433593 (Simulation time: 0 hr 53 min 34 sec) 
Heartbeat CPU 0 instructions: 73000002 cycles: 148769266 heartbeat IPC: 0.702724 cumulative IPC: 0.436245 (Simulation time: 0 hr 54 min 5 sec) 
Heartbeat CPU 0 instructions: 74000000 cycles: 150201243 heartbeat IPC: 0.698334 cumulative IPC: 0.438818 (Simulation time: 0 hr 54 min 38 sec) 
Heartbeat CPU 0 instructions: 75000000 cycles: 151630278 heartbeat IPC: 0.699773 cumulative IPC: 0.44135 (Simulation time: 0 hr 55 min 6 sec) 
Heartbeat CPU 0 instructions: 76000000 cycles: 153053940 heartbeat IPC: 0.702414 cumulative IPC: 0.44385 (Simulation time: 0 hr 55 min 34 sec) 
Heartbeat CPU 0 instructions: 77000001 cycles: 156411134 heartbeat IPC: 0.297868 cumulative IPC: 0.440627 (Simulation time: 0 hr 56 min 7 sec) 
Heartbeat CPU 0 instructions: 78000000 cycles: 159903114 heartbeat IPC: 0.28637 cumulative IPC: 0.437164 (Simulation time: 0 hr 56 min 42 sec) 
Heartbeat CPU 0 instructions: 79000002 cycles: 163382790 heartbeat IPC: 0.287384 cumulative IPC: 0.433887 (Simulation time: 0 hr 57 min 16 sec) 
Heartbeat CPU 0 instructions: 80000000 cycles: 166870362 heartbeat IPC: 0.286732 cumulative IPC: 0.430729 (Simulation time: 0 hr 57 min 50 sec) 
Heartbeat CPU 0 instructions: 81000000 cycles: 170352830 heartbeat IPC: 0.287153 cumulative IPC: 0.427716 (Simulation time: 0 hr 58 min 23 sec) 
Heartbeat CPU 0 instructions: 82000002 cycles: 174100013 heartbeat IPC: 0.266868 cumulative IPC: 0.424166 (Simulation time: 0 hr 58 min 56 sec) 
Heartbeat CPU 0 instructions: 83000002 cycles: 177816529 heartbeat IPC: 0.269069 cumulative IPC: 0.420843 (Simulation time: 0 hr 59 min 27 sec) 
Heartbeat CPU 0 instructions: 84000000 cycles: 181548511 heartbeat IPC: 0.267954 cumulative IPC: 0.417623 (Simulation time: 0 hr 59 min 56 sec) 
Heartbeat CPU 0 instructions: 85000000 cycles: 185274999 heartbeat IPC: 0.268349 cumulative IPC: 0.414548 (Simulation time: 1 hr 0 min 23 sec) 
Heartbeat CPU 0 instructions: 86000000 cycles: 189004794 heartbeat IPC: 0.268111 cumulative IPC: 0.41159 (Simulation time: 1 hr 0 min 46 sec) 
Heartbeat CPU 0 instructions: 87000000 cycles: 192393902 heartbeat IPC: 0.295063 cumulative IPC: 0.40949 (Simulation time: 1 hr 1 min 6 sec) 
Heartbeat CPU 0 instructions: 88000000 cycles: 194099254 heartbeat IPC: 0.586389 cumulative IPC: 0.41108 (Simulation time: 1 hr 1 min 24 sec) 
Heartbeat CPU 0 instructions: 89000001 cycles: 195783966 heartbeat IPC: 0.593574 cumulative IPC: 0.412686 (Simulation time: 1 hr 1 min 41 sec) 
Heartbeat CPU 0 instructions: 90000001 cycles: 197466130 heartbeat IPC: 0.594472 cumulative IPC: 0.414269 (Simulation time: 1 hr 1 min 57 sec) 
Heartbeat CPU 0 instructions: 91000001 cycles: 199157928 heartbeat IPC: 0.591087 cumulative IPC: 0.415805 (Simulation time: 1 hr 2 min 13 sec) 
Heartbeat CPU 0 instructions: 92000000 cycles: 200844506 heartbeat IPC: 0.592916 cumulative IPC: 0.417325 (Simulation time: 1 hr 2 min 27 sec) 
Heartbeat CPU 0 instructions: 93000002 cycles: 202516366 heartbeat IPC: 0.598137 cumulative IPC: 0.418851 (Simulation time: 1 hr 2 min 40 sec) 
Heartbeat CPU 0 instructions: 94000001 cycles: 204012885 heartbeat IPC: 0.668217 cumulative IPC: 0.42072 (Simulation time: 1 hr 2 min 52 sec) 
Heartbeat CPU 0 instructions: 95000000 cycles: 205507863 heartbeat IPC: 0.668905 cumulative IPC: 0.422564 (Simulation time: 1 hr 3 min 4 sec) 
Heartbeat CPU 0 instructions: 96000000 cycles: 207005965 heartbeat IPC: 0.667511 cumulative IPC: 0.424375 (Simulation time: 1 hr 3 min 14 sec) 
Heartbeat CPU 0 instructions: 97000001 cycles: 208496829 heartbeat IPC: 0.670753 cumulative IPC: 0.426174 (Simulation time: 1 hr 3 min 22 sec) 
Heartbeat CPU 0 instructions: 98000000 cycles: 210084803 heartbeat IPC: 0.629733 cumulative IPC: 0.427746 (Simulation time: 1 hr 3 min 31 sec) 
Heartbeat CPU 0 instructions: 99000001 cycles: 211521248 heartbeat IPC: 0.696164 cumulative IPC: 0.429607 (Simulation time: 1 hr 3 min 39 sec) 
Heartbeat CPU 0 instructions: 100000000 cycles: 212960582 heartbeat IPC: 0.694765 cumulative IPC: 0.431436 (Simulation time: 1 hr 3 min 47 sec) 
Heartbeat CPU 0 instructions: 101000002 cycles: 214391002 heartbeat IPC: 0.699097 cumulative IPC: 0.433259 (Simulation time: 1 hr 3 min 53 sec) 
Heartbeat CPU 0 instructions: 102000003 cycles: 215821311 heartbeat IPC: 0.69915 cumulative IPC: 0.435058 (Simulation time: 1 hr 3 min 59 sec) 
Heartbeat CPU 0 instructions: 103000001 cycles: 217250913 heartbeat IPC: 0.699494 cumulative IPC: 0.436833 (Simulation time: 1 hr 4 min 6 sec) 
Heartbeat CPU 0 instructions: 104000000 cycles: 218828236 heartbeat IPC: 0.633985 cumulative IPC: 0.438283 (Simulation time: 1 hr 4 min 12 sec) 
Heartbeat CPU 0 instructions: 105000003 cycles: 220273666 heartbeat IPC: 0.691838 cumulative IPC: 0.439981 (Simulation time: 1 hr 4 min 18 sec) 
Heartbeat CPU 0 instructions: 106000001 cycles: 221722693 heartbeat IPC: 0.690117 cumulative IPC: 0.441648 (Simulation time: 1 hr 4 min 25 sec) 
Heartbeat CPU 0 instructions: 107000001 cycles: 223178830 heartbeat IPC: 0.686749 cumulative IPC: 0.443279 (Simulation time: 1 hr 4 min 32 sec) 
Heartbeat CPU 0 instructions: 108000000 cycles: 224622838 heartbeat IPC: 0.692516 cumulative IPC: 0.444913 (Simulation time: 1 hr 4 min 38 sec) 
Heartbeat CPU 0 instructions: 109000000 cycles: 226060045 heartbeat IPC: 0.695794 cumulative IPC: 0.446539 (Simulation time: 1 hr 4 min 44 sec) 
Heartbeat CPU 0 instructions: 110000002 cycles: 227806267 heartbeat IPC: 0.572666 cumulative IPC: 0.447525 (Simulation time: 1 hr 4 min 49 sec) 
Finished CPU 0 instructions: 100000000 cycles: 223451234 cummulative IPC: 0.447525 (Simulation time: 1 hr 4 min 49 sec) 

ChampSim completed all CPUs

Region of Interest Statistics

CPU 0 cummulative IPC: 0.447525 instructions: 100000000 cycles: 223451234
LLC TOTAL     ACCESS:   13012865  HIT:   10710298  MISS:    2302567
LLC LOAD      ACCESS:    5290476  HIT:    4398657  MISS:     891819
LLC RFO       ACCESS:          0  HIT:          0  MISS:          0
LLC PREFETCH  ACCESS:    6808789  HIT:    5401044  MISS:    1407745
LLC WRITEBACK ACCESS:     913600  HIT:     910597  MISS:       3003
Insertion Distribution: 
	LOAD 116944 0 424830 391825 
	RFO 4 0 14499 0 
	PREF 0 616222 475627 386732 
	WRITEBACK 0 0 0 4838 
Total Prefetch Downgrades: 562018
