
*** ChampSim Multicore Out-of-Order Simulator ***

Warmup Instructions: 10000000
Simulation Instructions: 100000000
Configuration: 2
Number of CPUs: 1
LLC sets: 2048
LLC ways: 16
Off-chip DRAM Channels: 1 Width: 64-bit Data Rate: 1600 MT/s

CPU 0 runs /datasets/cs240c-wi22-a00-public/data/Assignment2-gz/zeusmp_300B.trace.gz
CPU 0 L1D next line prefetcher
CPU 0 L2C IP-based stride prefetcher
config 2, num_core 1, llc_sets 2048
Heartbeat CPU 0 instructions: 1000003 cycles: 509559 heartbeat IPC: 1.96249 cumulative IPC: 1.96249 (Simulation time: 0 hr 0 min 39 sec) 
Heartbeat CPU 0 instructions: 2000003 cycles: 1062005 heartbeat IPC: 1.81013 cumulative IPC: 1.88323 (Simulation time: 0 hr 1 min 19 sec) 
Heartbeat CPU 0 instructions: 3000002 cycles: 1606178 heartbeat IPC: 1.83765 cumulative IPC: 1.86779 (Simulation time: 0 hr 1 min 57 sec) 
Heartbeat CPU 0 instructions: 4000000 cycles: 2092972 heartbeat IPC: 2.05425 cumulative IPC: 1.91116 (Simulation time: 0 hr 2 min 34 sec) 
Heartbeat CPU 0 instructions: 5000001 cycles: 2575662 heartbeat IPC: 2.07173 cumulative IPC: 1.94125 (Simulation time: 0 hr 3 min 13 sec) 
Heartbeat CPU 0 instructions: 6000000 cycles: 3062354 heartbeat IPC: 2.05469 cumulative IPC: 1.95928 (Simulation time: 0 hr 3 min 48 sec) 
Heartbeat CPU 0 instructions: 7000001 cycles: 3590454 heartbeat IPC: 1.89358 cumulative IPC: 1.94961 (Simulation time: 0 hr 4 min 22 sec) 
Heartbeat CPU 0 instructions: 8000000 cycles: 4144213 heartbeat IPC: 1.80584 cumulative IPC: 1.9304 (Simulation time: 0 hr 4 min 58 sec) 
Heartbeat CPU 0 instructions: 9000000 cycles: 4671800 heartbeat IPC: 1.89542 cumulative IPC: 1.92645 (Simulation time: 0 hr 5 min 38 sec) 
Heartbeat CPU 0 instructions: 10000002 cycles: 5158088 heartbeat IPC: 2.0564 cumulative IPC: 1.9387 (Simulation time: 0 hr 6 min 12 sec) 

Warmup complete CPU 0 instructions: 10000002 cycles: 5158088 (Simulation time: 0 hr 6 min 12 sec) 

Heartbeat CPU 0 instructions: 11000003 cycles: 5853806 heartbeat IPC: 1.43737 cumulative IPC: 1.43737 (Simulation time: 0 hr 6 min 55 sec) 
Heartbeat CPU 0 instructions: 12000000 cycles: 6547076 heartbeat IPC: 1.44244 cumulative IPC: 1.4399 (Simulation time: 0 hr 7 min 44 sec) 
Heartbeat CPU 0 instructions: 13000000 cycles: 7349975 heartbeat IPC: 1.24549 cumulative IPC: 1.36868 (Simulation time: 0 hr 8 min 20 sec) 
Heartbeat CPU 0 instructions: 14000000 cycles: 8162152 heartbeat IPC: 1.23126 cumulative IPC: 1.33153 (Simulation time: 0 hr 9 min 2 sec) 
Heartbeat CPU 0 instructions: 15000002 cycles: 8900786 heartbeat IPC: 1.35385 cumulative IPC: 1.33593 (Simulation time: 0 hr 9 min 38 sec) 
Heartbeat CPU 0 instructions: 16000000 cycles: 9604399 heartbeat IPC: 1.42123 cumulative IPC: 1.34943 (Simulation time: 0 hr 10 min 17 sec) 
Heartbeat CPU 0 instructions: 17000003 cycles: 10311310 heartbeat IPC: 1.41461 cumulative IPC: 1.35837 (Simulation time: 0 hr 10 min 56 sec) 
Heartbeat CPU 0 instructions: 18000000 cycles: 11031157 heartbeat IPC: 1.38918 cumulative IPC: 1.36215 (Simulation time: 0 hr 11 min 39 sec) 
Heartbeat CPU 0 instructions: 19000003 cycles: 11846795 heartbeat IPC: 1.22604 cumulative IPC: 1.34555 (Simulation time: 0 hr 12 min 16 sec) 
Heartbeat CPU 0 instructions: 20000000 cycles: 12657617 heartbeat IPC: 1.23331 cumulative IPC: 1.33342 (Simulation time: 0 hr 12 min 59 sec) 
Heartbeat CPU 0 instructions: 21000001 cycles: 13367271 heartbeat IPC: 1.40914 cumulative IPC: 1.33996 (Simulation time: 0 hr 13 min 49 sec) 
Heartbeat CPU 0 instructions: 22000000 cycles: 14071681 heartbeat IPC: 1.41963 cumulative IPC: 1.34626 (Simulation time: 0 hr 14 min 29 sec) 
Heartbeat CPU 0 instructions: 23000001 cycles: 14774759 heartbeat IPC: 1.42232 cumulative IPC: 1.35182 (Simulation time: 0 hr 15 min 8 sec) 
Heartbeat CPU 0 instructions: 24000000 cycles: 15526696 heartbeat IPC: 1.3299 cumulative IPC: 1.35023 (Simulation time: 0 hr 17 min 14 sec) 
Heartbeat CPU 0 instructions: 25000000 cycles: 16337588 heartbeat IPC: 1.23321 cumulative IPC: 1.34174 (Simulation time: 0 hr 19 min 49 sec) 
Heartbeat CPU 0 instructions: 26000000 cycles: 17138758 heartbeat IPC: 1.24817 cumulative IPC: 1.33548 (Simulation time: 0 hr 22 min 21 sec) 
Heartbeat CPU 0 instructions: 27000002 cycles: 17840920 heartbeat IPC: 1.42418 cumulative IPC: 1.34039 (Simulation time: 0 hr 24 min 54 sec) 
Heartbeat CPU 0 instructions: 28000000 cycles: 18548872 heartbeat IPC: 1.41252 cumulative IPC: 1.34421 (Simulation time: 0 hr 27 min 35 sec) 
Heartbeat CPU 0 instructions: 29000003 cycles: 19255866 heartbeat IPC: 1.41444 cumulative IPC: 1.34773 (Simulation time: 0 hr 30 min 1 sec) 
Heartbeat CPU 0 instructions: 30000002 cycles: 20032059 heartbeat IPC: 1.28834 cumulative IPC: 1.34463 (Simulation time: 0 hr 32 min 40 sec) 
Heartbeat CPU 0 instructions: 31000001 cycles: 20847366 heartbeat IPC: 1.22653 cumulative IPC: 1.33849 (Simulation time: 0 hr 35 min 38 sec) 
Heartbeat CPU 0 instructions: 32000000 cycles: 21621673 heartbeat IPC: 1.29148 cumulative IPC: 1.33628 (Simulation time: 0 hr 38 min 37 sec) 
Heartbeat CPU 0 instructions: 33000000 cycles: 22324092 heartbeat IPC: 1.42365 cumulative IPC: 1.33986 (Simulation time: 0 hr 41 min 15 sec) 
Heartbeat CPU 0 instructions: 34000000 cycles: 23035403 heartbeat IPC: 1.40585 cumulative IPC: 1.34248 (Simulation time: 0 hr 43 min 52 sec) 
Heartbeat CPU 0 instructions: 35000000 cycles: 23741215 heartbeat IPC: 1.41681 cumulative IPC: 1.34531 (Simulation time: 0 hr 46 min 25 sec) 
Heartbeat CPU 0 instructions: 36000000 cycles: 24543053 heartbeat IPC: 1.24713 cumulative IPC: 1.34125 (Simulation time: 0 hr 49 min 10 sec) 
Heartbeat CPU 0 instructions: 37000003 cycles: 25358029 heartbeat IPC: 1.22703 cumulative IPC: 1.33664 (Simulation time: 0 hr 51 min 40 sec) 
Heartbeat CPU 0 instructions: 38000001 cycles: 26110236 heartbeat IPC: 1.32942 cumulative IPC: 1.33638 (Simulation time: 0 hr 54 min 23 sec) 
Heartbeat CPU 0 instructions: 39000002 cycles: 26811051 heartbeat IPC: 1.42691 cumulative IPC: 1.33931 (Simulation time: 0 hr 57 min 2 sec) 
Heartbeat CPU 0 instructions: 40000000 cycles: 27519020 heartbeat IPC: 1.41249 cumulative IPC: 1.34163 (Simulation time: 0 hr 59 min 36 sec) 
Heartbeat CPU 0 instructions: 41000001 cycles: 28223467 heartbeat IPC: 1.41955 cumulative IPC: 1.34401 (Simulation time: 1 hr 2 min 12 sec) 
Heartbeat CPU 0 instructions: 42000001 cycles: 29050964 heartbeat IPC: 1.20846 cumulative IPC: 1.33931 (Simulation time: 1 hr 5 min 9 sec) 
Heartbeat CPU 0 instructions: 43000000 cycles: 29860905 heartbeat IPC: 1.23466 cumulative IPC: 1.33588 (Simulation time: 1 hr 8 min 1 sec) 
Heartbeat CPU 0 instructions: 44000000 cycles: 30584624 heartbeat IPC: 1.38175 cumulative IPC: 1.33719 (Simulation time: 1 hr 10 min 54 sec) 
Heartbeat CPU 0 instructions: 45000002 cycles: 31289972 heartbeat IPC: 1.41774 cumulative IPC: 1.33936 (Simulation time: 1 hr 13 min 43 sec) 
Heartbeat CPU 0 instructions: 46000002 cycles: 31996324 heartbeat IPC: 1.41572 cumulative IPC: 1.34137 (Simulation time: 1 hr 16 min 16 sec) 
Heartbeat CPU 0 instructions: 47000001 cycles: 32738835 heartbeat IPC: 1.34678 cumulative IPC: 1.34152 (Simulation time: 1 hr 19 min 3 sec) 
Heartbeat CPU 0 instructions: 48000000 cycles: 33549844 heartbeat IPC: 1.23303 cumulative IPC: 1.33842 (Simulation time: 1 hr 21 min 49 sec) 
Heartbeat CPU 0 instructions: 49000003 cycles: 34356185 heartbeat IPC: 1.24017 cumulative IPC: 1.3357 (Simulation time: 1 hr 24 min 22 sec) 
Heartbeat CPU 0 instructions: 50000001 cycles: 35058186 heartbeat IPC: 1.4245 cumulative IPC: 1.33779 (Simulation time: 1 hr 26 min 52 sec) 
Heartbeat CPU 0 instructions: 51000002 cycles: 35763086 heartbeat IPC: 1.41864 cumulative IPC: 1.33965 (Simulation time: 1 hr 29 min 30 sec) 
Heartbeat CPU 0 instructions: 52000000 cycles: 36469492 heartbeat IPC: 1.41561 cumulative IPC: 1.34136 (Simulation time: 1 hr 32 min 6 sec) 
Heartbeat CPU 0 instructions: 53000000 cycles: 37237185 heartbeat IPC: 1.3026 cumulative IPC: 1.34044 (Simulation time: 1 hr 34 min 42 sec) 
Heartbeat CPU 0 instructions: 54000002 cycles: 38047113 heartbeat IPC: 1.23468 cumulative IPC: 1.33783 (Simulation time: 1 hr 37 min 33 sec) 
Heartbeat CPU 0 instructions: 55000001 cycles: 38827593 heartbeat IPC: 1.28126 cumulative IPC: 1.33652 (Simulation time: 1 hr 40 min 17 sec) 
Heartbeat CPU 0 instructions: 56000000 cycles: 39531838 heartbeat IPC: 1.41996 cumulative IPC: 1.33823 (Simulation time: 1 hr 42 min 53 sec) 
Heartbeat CPU 0 instructions: 57000000 cycles: 40239376 heartbeat IPC: 1.41335 cumulative IPC: 1.33975 (Simulation time: 1 hr 45 min 38 sec) 
Heartbeat CPU 0 instructions: 58000000 cycles: 40948079 heartbeat IPC: 1.41103 cumulative IPC: 1.34116 (Simulation time: 1 hr 48 min 21 sec) 
Heartbeat CPU 0 instructions: 59000003 cycles: 41735920 heartbeat IPC: 1.2693 cumulative IPC: 1.33961 (Simulation time: 1 hr 51 min 8 sec) 
Heartbeat CPU 0 instructions: 60000000 cycles: 42547081 heartbeat IPC: 1.2328 cumulative IPC: 1.33729 (Simulation time: 1 hr 53 min 46 sec) 
Heartbeat CPU 0 instructions: 61000000 cycles: 43304989 heartbeat IPC: 1.31942 cumulative IPC: 1.33694 (Simulation time: 1 hr 56 min 24 sec) 
Heartbeat CPU 0 instructions: 62000002 cycles: 44009999 heartbeat IPC: 1.41842 cumulative IPC: 1.33842 (Simulation time: 1 hr 59 min 2 sec) 
Heartbeat CPU 0 instructions: 63000003 cycles: 44715929 heartbeat IPC: 1.41657 cumulative IPC: 1.33981 (Simulation time: 2 hr 1 min 35 sec) 
Heartbeat CPU 0 instructions: 64000000 cycles: 45419525 heartbeat IPC: 1.42127 cumulative IPC: 1.34123 (Simulation time: 2 hr 4 min 2 sec) 
Heartbeat CPU 0 instructions: 65000003 cycles: 46235779 heartbeat IPC: 1.22511 cumulative IPC: 1.33893 (Simulation time: 2 hr 6 min 42 sec) 
Heartbeat CPU 0 instructions: 66000003 cycles: 47047207 heartbeat IPC: 1.2324 cumulative IPC: 1.33686 (Simulation time: 2 hr 9 min 6 sec) 
Heartbeat CPU 0 instructions: 67000002 cycles: 47779008 heartbeat IPC: 1.36649 cumulative IPC: 1.33737 (Simulation time: 2 hr 11 min 44 sec) 
Heartbeat CPU 0 instructions: 68000000 cycles: 48483693 heartbeat IPC: 1.41907 cumulative IPC: 1.3387 (Simulation time: 2 hr 14 min 13 sec) 
Heartbeat CPU 0 instructions: 69000000 cycles: 49189986 heartbeat IPC: 1.41584 cumulative IPC: 1.33994 (Simulation time: 2 hr 16 min 43 sec) 
Heartbeat CPU 0 instructions: 70000001 cycles: 49925214 heartbeat IPC: 1.36012 cumulative IPC: 1.34027 (Simulation time: 2 hr 19 min 21 sec) 
Heartbeat CPU 0 instructions: 71000001 cycles: 50732132 heartbeat IPC: 1.23928 cumulative IPC: 1.33848 (Simulation time: 2 hr 21 min 53 sec) 
Heartbeat CPU 0 instructions: 72000000 cycles: 51542324 heartbeat IPC: 1.23427 cumulative IPC: 1.33666 (Simulation time: 2 hr 24 min 35 sec) 
Heartbeat CPU 0 instructions: 73000003 cycles: 52252542 heartbeat IPC: 1.40802 cumulative IPC: 1.33774 (Simulation time: 2 hr 27 min 14 sec) 
Heartbeat CPU 0 instructions: 74000001 cycles: 52957131 heartbeat IPC: 1.41926 cumulative IPC: 1.33894 (Simulation time: 2 hr 29 min 51 sec) 
Heartbeat CPU 0 instructions: 75000003 cycles: 53665127 heartbeat IPC: 1.41244 cumulative IPC: 1.34001 (Simulation time: 2 hr 32 min 23 sec) 
Heartbeat CPU 0 instructions: 76000000 cycles: 54426922 heartbeat IPC: 1.31269 cumulative IPC: 1.33959 (Simulation time: 2 hr 34 min 57 sec) 
Heartbeat CPU 0 instructions: 77000001 cycles: 55237386 heartbeat IPC: 1.23386 cumulative IPC: 1.33788 (Simulation time: 2 hr 37 min 37 sec) 
Heartbeat CPU 0 instructions: 78000003 cycles: 56026620 heartbeat IPC: 1.26705 cumulative IPC: 1.33678 (Simulation time: 2 hr 40 min 17 sec) 
Heartbeat CPU 0 instructions: 79000001 cycles: 56730030 heartbeat IPC: 1.42164 cumulative IPC: 1.33794 (Simulation time: 2 hr 42 min 50 sec) 
Heartbeat CPU 0 instructions: 80000000 cycles: 57436876 heartbeat IPC: 1.41473 cumulative IPC: 1.33898 (Simulation time: 2 hr 45 min 12 sec) 
Heartbeat CPU 0 instructions: 81000000 cycles: 58140727 heartbeat IPC: 1.42076 cumulative IPC: 1.34006 (Simulation time: 2 hr 47 min 32 sec) 
Heartbeat CPU 0 instructions: 82000002 cycles: 58923631 heartbeat IPC: 1.2773 cumulative IPC: 1.33915 (Simulation time: 2 hr 50 min 1 sec) 
Heartbeat CPU 0 instructions: 83000001 cycles: 59733290 heartbeat IPC: 1.23509 cumulative IPC: 1.3376 (Simulation time: 2 hr 52 min 35 sec) 
Heartbeat CPU 0 instructions: 84000000 cycles: 60497094 heartbeat IPC: 1.30924 cumulative IPC: 1.33721 (Simulation time: 2 hr 55 min 0 sec) 
Heartbeat CPU 0 instructions: 85000001 cycles: 61202062 heartbeat IPC: 1.41851 cumulative IPC: 1.33823 (Simulation time: 2 hr 57 min 19 sec) 
Heartbeat CPU 0 instructions: 86000002 cycles: 61910973 heartbeat IPC: 1.41062 cumulative IPC: 1.33914 (Simulation time: 2 hr 59 min 42 sec) 
Heartbeat CPU 0 instructions: 87000000 cycles: 62613976 heartbeat IPC: 1.42247 cumulative IPC: 1.34016 (Simulation time: 3 hr 1 min 49 sec) 
Heartbeat CPU 0 instructions: 88000000 cycles: 63419733 heartbeat IPC: 1.24107 cumulative IPC: 1.33879 (Simulation time: 3 hr 4 min 9 sec) 
Heartbeat CPU 0 instructions: 89000000 cycles: 64231273 heartbeat IPC: 1.23223 cumulative IPC: 1.33732 (Simulation time: 3 hr 6 min 41 sec) 
Heartbeat CPU 0 instructions: 90000002 cycles: 64973057 heartbeat IPC: 1.3481 cumulative IPC: 1.33746 (Simulation time: 3 hr 9 min 2 sec) 
Heartbeat CPU 0 instructions: 91000002 cycles: 65677538 heartbeat IPC: 1.41948 cumulative IPC: 1.33841 (Simulation time: 3 hr 11 min 13 sec) 
Heartbeat CPU 0 instructions: 92000000 cycles: 66386428 heartbeat IPC: 1.41065 cumulative IPC: 1.33925 (Simulation time: 3 hr 13 min 40 sec) 
Heartbeat CPU 0 instructions: 93000001 cycles: 67091259 heartbeat IPC: 1.41878 cumulative IPC: 1.34015 (Simulation time: 3 hr 15 min 50 sec) 
Heartbeat CPU 0 instructions: 94000000 cycles: 67919192 heartbeat IPC: 1.20783 cumulative IPC: 1.33841 (Simulation time: 3 hr 18 min 8 sec) 
Heartbeat CPU 0 instructions: 95000003 cycles: 68730178 heartbeat IPC: 1.23307 cumulative IPC: 1.33706 (Simulation time: 3 hr 20 min 28 sec) 
Heartbeat CPU 0 instructions: 96000000 cycles: 69448123 heartbeat IPC: 1.39286 cumulative IPC: 1.33769 (Simulation time: 3 hr 22 min 36 sec) 
Heartbeat CPU 0 instructions: 97000001 cycles: 70154203 heartbeat IPC: 1.41627 cumulative IPC: 1.33854 (Simulation time: 3 hr 24 min 41 sec) 
Heartbeat CPU 0 instructions: 98000000 cycles: 70863318 heartbeat IPC: 1.41021 cumulative IPC: 1.33931 (Simulation time: 3 hr 27 min 1 sec) 
Heartbeat CPU 0 instructions: 99000001 cycles: 71610264 heartbeat IPC: 1.33879 cumulative IPC: 1.33931 (Simulation time: 3 hr 29 min 6 sec) 
Heartbeat CPU 0 instructions: 100000000 cycles: 72421400 heartbeat IPC: 1.23284 cumulative IPC: 1.33803 (Simulation time: 3 hr 31 min 8 sec) 
Heartbeat CPU 0 instructions: 101000001 cycles: 73224915 heartbeat IPC: 1.24453 cumulative IPC: 1.33692 (Simulation time: 3 hr 33 min 14 sec) 
Heartbeat CPU 0 instructions: 102000003 cycles: 73927016 heartbeat IPC: 1.4243 cumulative IPC: 1.33781 (Simulation time: 3 hr 35 min 20 sec) 
Heartbeat CPU 0 instructions: 103000003 cycles: 74634427 heartbeat IPC: 1.41361 cumulative IPC: 1.33859 (Simulation time: 3 hr 37 min 22 sec) 
Heartbeat CPU 0 instructions: 104000000 cycles: 75337887 heartbeat IPC: 1.42154 cumulative IPC: 1.33942 (Simulation time: 3 hr 39 min 17 sec) 
Heartbeat CPU 0 instructions: 105000001 cycles: 76113346 heartbeat IPC: 1.28956 cumulative IPC: 1.33887 (Simulation time: 3 hr 41 min 16 sec) 
Heartbeat CPU 0 instructions: 106000002 cycles: 76920040 heartbeat IPC: 1.23963 cumulative IPC: 1.33776 (Simulation time: 3 hr 43 min 19 sec) 
Heartbeat CPU 0 instructions: 107000003 cycles: 77696809 heartbeat IPC: 1.28739 cumulative IPC: 1.33722 (Simulation time: 3 hr 45 min 16 sec) 
Heartbeat CPU 0 instructions: 108000000 cycles: 78401008 heartbeat IPC: 1.42005 cumulative IPC: 1.33801 (Simulation time: 3 hr 47 min 7 sec) 
Heartbeat CPU 0 instructions: 109000001 cycles: 79107220 heartbeat IPC: 1.41601 cumulative IPC: 1.33876 (Simulation time: 3 hr 48 min 58 sec) 
Heartbeat CPU 0 instructions: 110000000 cycles: 79812538 heartbeat IPC: 1.4178 cumulative IPC: 1.3395 (Simulation time: 3 hr 50 min 52 sec) 
Finished CPU 0 instructions: 100000002 cycles: 74654451 cummulative IPC: 1.3395 (Simulation time: 3 hr 50 min 52 sec) 

ChampSim completed all CPUs

Region of Interest Statistics

CPU 0 cummulative IPC: 1.3395 instructions: 100000002 cycles: 74654451
LLC TOTAL     ACCESS:     631760  HIT:     249456  MISS:     382304
LLC LOAD      ACCESS:      35224  HIT:       7942  MISS:      27282
LLC RFO       ACCESS:     152070  HIT:      75645  MISS:      76425
LLC PREFETCH  ACCESS:     288663  HIT:      74916  MISS:     213747
LLC WRITEBACK ACCESS:     155803  HIT:      90953  MISS:      64850
