
*** ChampSim Multicore Out-of-Order Simulator ***

Warmup Instructions: 10000000
Simulation Instructions: 100000000
Configuration: 2
Number of CPUs: 1
LLC sets: 2048
LLC ways: 16
Off-chip DRAM Channels: 1 Width: 64-bit Data Rate: 1600 MT/s

CPU 0 runs /datasets/cs240c-wi22-a00-public/data/Assignment2-gz/astar_313B.trace.gz
CPU 0 L1D next line prefetcher
CPU 0 L2C IP-based stride prefetcher
config 2, num_core 1, llc_sets 2048
Heartbeat CPU 0 instructions: 1000001 cycles: 675827 heartbeat IPC: 1.47967 cumulative IPC: 1.47967 (Simulation time: 0 hr 3 min 45 sec) 
Heartbeat CPU 0 instructions: 2000003 cycles: 1263240 heartbeat IPC: 1.70238 cumulative IPC: 1.58323 (Simulation time: 0 hr 7 min 15 sec) 
Heartbeat CPU 0 instructions: 3000003 cycles: 1937826 heartbeat IPC: 1.48239 cumulative IPC: 1.54813 (Simulation time: 0 hr 10 min 37 sec) 
Heartbeat CPU 0 instructions: 4000000 cycles: 2611858 heartbeat IPC: 1.4836 cumulative IPC: 1.53148 (Simulation time: 0 hr 14 min 11 sec) 
Heartbeat CPU 0 instructions: 5000002 cycles: 3286097 heartbeat IPC: 1.48316 cumulative IPC: 1.52156 (Simulation time: 0 hr 18 min 5 sec) 
Heartbeat CPU 0 instructions: 6000001 cycles: 3872856 heartbeat IPC: 1.70428 cumulative IPC: 1.54924 (Simulation time: 0 hr 21 min 58 sec) 
Heartbeat CPU 0 instructions: 7000001 cycles: 4441490 heartbeat IPC: 1.7586 cumulative IPC: 1.57605 (Simulation time: 0 hr 25 min 24 sec) 
Heartbeat CPU 0 instructions: 8000000 cycles: 4993135 heartbeat IPC: 1.81276 cumulative IPC: 1.6022 (Simulation time: 0 hr 28 min 39 sec) 
Heartbeat CPU 0 instructions: 9000001 cycles: 5554682 heartbeat IPC: 1.7808 cumulative IPC: 1.62025 (Simulation time: 0 hr 31 min 57 sec) 
Heartbeat CPU 0 instructions: 10000002 cycles: 6229627 heartbeat IPC: 1.4816 cumulative IPC: 1.60523 (Simulation time: 0 hr 35 min 15 sec) 

Warmup complete CPU 0 instructions: 10000002 cycles: 6229627 (Simulation time: 0 hr 35 min 15 sec) 

Heartbeat CPU 0 instructions: 11000000 cycles: 12725928 heartbeat IPC: 0.153933 cumulative IPC: 0.153933 (Simulation time: 0 hr 38 min 57 sec) 
Heartbeat CPU 0 instructions: 12000000 cycles: 19357969 heartbeat IPC: 0.150783 cumulative IPC: 0.152342 (Simulation time: 0 hr 42 min 42 sec) 
Heartbeat CPU 0 instructions: 13000003 cycles: 27756129 heartbeat IPC: 0.119074 cumulative IPC: 0.139363 (Simulation time: 0 hr 46 min 49 sec) 
Heartbeat CPU 0 instructions: 14000002 cycles: 33895800 heartbeat IPC: 0.162875 cumulative IPC: 0.144581 (Simulation time: 0 hr 50 min 19 sec) 
Heartbeat CPU 0 instructions: 15000000 cycles: 40138728 heartbeat IPC: 0.160181 cumulative IPC: 0.147453 (Simulation time: 0 hr 53 min 53 sec) 
Heartbeat CPU 0 instructions: 16000000 cycles: 46029493 heartbeat IPC: 0.169757 cumulative IPC: 0.150754 (Simulation time: 0 hr 57 min 24 sec) 
Heartbeat CPU 0 instructions: 17000001 cycles: 51977710 heartbeat IPC: 0.168118 cumulative IPC: 0.153012 (Simulation time: 1 hr 1 min 14 sec) 
Heartbeat CPU 0 instructions: 18000000 cycles: 60720605 heartbeat IPC: 0.114378 cumulative IPC: 0.146813 (Simulation time: 1 hr 5 min 35 sec) 
Heartbeat CPU 0 instructions: 19000000 cycles: 66823093 heartbeat IPC: 0.163868 cumulative IPC: 0.148531 (Simulation time: 1 hr 9 min 3 sec) 
Heartbeat CPU 0 instructions: 20000000 cycles: 73060654 heartbeat IPC: 0.160319 cumulative IPC: 0.149631 (Simulation time: 1 hr 12 min 31 sec) 
Heartbeat CPU 0 instructions: 21000002 cycles: 81259748 heartbeat IPC: 0.121965 cumulative IPC: 0.146608 (Simulation time: 1 hr 16 min 23 sec) 
Heartbeat CPU 0 instructions: 22000002 cycles: 88126535 heartbeat IPC: 0.145629 cumulative IPC: 0.146526 (Simulation time: 1 hr 20 min 14 sec) 
Heartbeat CPU 0 instructions: 23000002 cycles: 93701690 heartbeat IPC: 0.179367 cumulative IPC: 0.148619 (Simulation time: 1 hr 23 min 44 sec) 
Heartbeat CPU 0 instructions: 24000000 cycles: 100243925 heartbeat IPC: 0.152853 cumulative IPC: 0.148914 (Simulation time: 1 hr 27 min 18 sec) 
Heartbeat CPU 0 instructions: 25000001 cycles: 108142509 heartbeat IPC: 0.126605 cumulative IPC: 0.147185 (Simulation time: 1 hr 31 min 15 sec) 
Heartbeat CPU 0 instructions: 26000002 cycles: 114525044 heartbeat IPC: 0.156678 cumulative IPC: 0.147744 (Simulation time: 1 hr 35 min 4 sec) 
Heartbeat CPU 0 instructions: 27000003 cycles: 123665623 heartbeat IPC: 0.109402 cumulative IPC: 0.14476 (Simulation time: 1 hr 38 min 54 sec) 
Heartbeat CPU 0 instructions: 28000000 cycles: 129510100 heartbeat IPC: 0.171101 cumulative IPC: 0.146009 (Simulation time: 1 hr 42 min 33 sec) 
Heartbeat CPU 0 instructions: 29000001 cycles: 138098001 heartbeat IPC: 0.116443 cumulative IPC: 0.144083 (Simulation time: 1 hr 46 min 33 sec) 
Heartbeat CPU 0 instructions: 30000001 cycles: 144049936 heartbeat IPC: 0.168013 cumulative IPC: 0.145116 (Simulation time: 1 hr 50 min 28 sec) 
Heartbeat CPU 0 instructions: 31000002 cycles: 150056332 heartbeat IPC: 0.166489 cumulative IPC: 0.146009 (Simulation time: 1 hr 54 min 13 sec) 
Heartbeat CPU 0 instructions: 32000000 cycles: 155726016 heartbeat IPC: 0.176376 cumulative IPC: 0.147161 (Simulation time: 1 hr 57 min 53 sec) 
Heartbeat CPU 0 instructions: 33000000 cycles: 161376116 heartbeat IPC: 0.176988 cumulative IPC: 0.148247 (Simulation time: 2 hr 1 min 30 sec) 
Heartbeat CPU 0 instructions: 34000000 cycles: 169891093 heartbeat IPC: 0.11744 cumulative IPC: 0.146644 (Simulation time: 2 hr 5 min 36 sec) 
Heartbeat CPU 0 instructions: 35000000 cycles: 175701760 heartbeat IPC: 0.172097 cumulative IPC: 0.147517 (Simulation time: 2 hr 9 min 15 sec) 
Heartbeat CPU 0 instructions: 36000000 cycles: 181904531 heartbeat IPC: 0.161218 cumulative IPC: 0.148001 (Simulation time: 2 hr 13 min 3 sec) 
Heartbeat CPU 0 instructions: 37000002 cycles: 190565457 heartbeat IPC: 0.115461 cumulative IPC: 0.146472 (Simulation time: 2 hr 17 min 22 sec) 
Heartbeat CPU 0 instructions: 38000000 cycles: 196318612 heartbeat IPC: 0.173817 cumulative IPC: 0.147299 (Simulation time: 2 hr 21 min 15 sec) 
Heartbeat CPU 0 instructions: 39000001 cycles: 204882312 heartbeat IPC: 0.116772 cumulative IPC: 0.145983 (Simulation time: 2 hr 25 min 31 sec) 
Heartbeat CPU 0 instructions: 40000000 cycles: 213351321 heartbeat IPC: 0.118077 cumulative IPC: 0.144842 (Simulation time: 2 hr 29 min 49 sec) 
Heartbeat CPU 0 instructions: 41000001 cycles: 219264470 heartbeat IPC: 0.169115 cumulative IPC: 0.145516 (Simulation time: 2 hr 33 min 27 sec) 
Heartbeat CPU 0 instructions: 42000003 cycles: 226223012 heartbeat IPC: 0.143709 cumulative IPC: 0.145459 (Simulation time: 2 hr 37 min 8 sec) 
Heartbeat CPU 0 instructions: 43000002 cycles: 235477647 heartbeat IPC: 0.108054 cumulative IPC: 0.143949 (Simulation time: 2 hr 41 min 7 sec) 
Heartbeat CPU 0 instructions: 44000000 cycles: 240914155 heartbeat IPC: 0.183941 cumulative IPC: 0.144875 (Simulation time: 2 hr 44 min 28 sec) 
Heartbeat CPU 0 instructions: 45000000 cycles: 247007518 heartbeat IPC: 0.164113 cumulative IPC: 0.145362 (Simulation time: 2 hr 48 min 1 sec) 
Heartbeat CPU 0 instructions: 46000002 cycles: 253419664 heartbeat IPC: 0.155954 cumulative IPC: 0.145637 (Simulation time: 2 hr 51 min 30 sec) 
Heartbeat CPU 0 instructions: 47000000 cycles: 260010998 heartbeat IPC: 0.151714 cumulative IPC: 0.145795 (Simulation time: 2 hr 55 min 4 sec) 
Heartbeat CPU 0 instructions: 48000000 cycles: 268256498 heartbeat IPC: 0.121278 cumulative IPC: 0.145023 (Simulation time: 2 hr 58 min 57 sec) 
Heartbeat CPU 0 instructions: 49000000 cycles: 273712008 heartbeat IPC: 0.183301 cumulative IPC: 0.145804 (Simulation time: 3 hr 2 min 28 sec) 
Heartbeat CPU 0 instructions: 50000000 cycles: 279521984 heartbeat IPC: 0.172118 cumulative IPC: 0.146363 (Simulation time: 3 hr 5 min 55 sec) 
Heartbeat CPU 0 instructions: 51000000 cycles: 286225981 heartbeat IPC: 0.149165 cumulative IPC: 0.14643 (Simulation time: 3 hr 9 min 24 sec) 
Heartbeat CPU 0 instructions: 52000000 cycles: 293985647 heartbeat IPC: 0.128872 cumulative IPC: 0.145957 (Simulation time: 3 hr 13 min 10 sec) 
Heartbeat CPU 0 instructions: 53000000 cycles: 300266921 heartbeat IPC: 0.159203 cumulative IPC: 0.14624 (Simulation time: 3 hr 16 min 40 sec) 
Heartbeat CPU 0 instructions: 54000000 cycles: 307780978 heartbeat IPC: 0.133084 cumulative IPC: 0.145912 (Simulation time: 3 hr 20 min 22 sec) 
Heartbeat CPU 0 instructions: 55000001 cycles: 315842722 heartbeat IPC: 0.124043 cumulative IPC: 0.145343 (Simulation time: 3 hr 23 min 51 sec) 
Heartbeat CPU 0 instructions: 56000000 cycles: 325540751 heartbeat IPC: 0.103114 cumulative IPC: 0.14406 (Simulation time: 3 hr 27 min 43 sec) 
Heartbeat CPU 0 instructions: 57000000 cycles: 331307235 heartbeat IPC: 0.173416 cumulative IPC: 0.144581 (Simulation time: 3 hr 30 min 50 sec) 
Heartbeat CPU 0 instructions: 58000001 cycles: 337654816 heartbeat IPC: 0.15754 cumulative IPC: 0.144829 (Simulation time: 3 hr 34 min 16 sec) 
Heartbeat CPU 0 instructions: 59000002 cycles: 345981389 heartbeat IPC: 0.120098 cumulative IPC: 0.144223 (Simulation time: 3 hr 37 min 44 sec) 
Heartbeat CPU 0 instructions: 60000000 cycles: 353258490 heartbeat IPC: 0.137417 cumulative IPC: 0.14408 (Simulation time: 3 hr 41 min 12 sec) 
Heartbeat CPU 0 instructions: 61000001 cycles: 359317351 heartbeat IPC: 0.165048 cumulative IPC: 0.14444 (Simulation time: 3 hr 44 min 17 sec) 
Heartbeat CPU 0 instructions: 62000001 cycles: 365381262 heartbeat IPC: 0.16491 cumulative IPC: 0.144786 (Simulation time: 3 hr 47 min 26 sec) 
Heartbeat CPU 0 instructions: 63000000 cycles: 371731014 heartbeat IPC: 0.157486 cumulative IPC: 0.145006 (Simulation time: 3 hr 50 min 29 sec) 
Heartbeat CPU 0 instructions: 64000000 cycles: 380276049 heartbeat IPC: 0.117027 cumulative IPC: 0.144367 (Simulation time: 3 hr 53 min 32 sec) 
Heartbeat CPU 0 instructions: 65000000 cycles: 386709196 heartbeat IPC: 0.155445 cumulative IPC: 0.144554 (Simulation time: 3 hr 56 min 22 sec) 
Heartbeat CPU 0 instructions: 66000001 cycles: 392927077 heartbeat IPC: 0.160827 cumulative IPC: 0.144816 (Simulation time: 3 hr 58 min 56 sec) 
Heartbeat CPU 0 instructions: 67000000 cycles: 399692858 heartbeat IPC: 0.147802 cumulative IPC: 0.144867 (Simulation time: 4 hr 1 min 27 sec) 
Heartbeat CPU 0 instructions: 68000000 cycles: 406680645 heartbeat IPC: 0.143107 cumulative IPC: 0.144837 (Simulation time: 4 hr 4 min 3 sec) 
Heartbeat CPU 0 instructions: 69000000 cycles: 418030410 heartbeat IPC: 0.0881075 cumulative IPC: 0.143273 (Simulation time: 4 hr 6 min 49 sec) 
Heartbeat CPU 0 instructions: 70000000 cycles: 424222924 heartbeat IPC: 0.161485 cumulative IPC: 0.143543 (Simulation time: 4 hr 8 min 47 sec) 
Heartbeat CPU 0 instructions: 71000002 cycles: 430428617 heartbeat IPC: 0.161143 cumulative IPC: 0.1438 (Simulation time: 4 hr 10 min 29 sec) 
Heartbeat CPU 0 instructions: 72000000 cycles: 437022710 heartbeat IPC: 0.151651 cumulative IPC: 0.143921 (Simulation time: 4 hr 12 min 8 sec) 
Heartbeat CPU 0 instructions: 73000003 cycles: 443949722 heartbeat IPC: 0.144363 cumulative IPC: 0.143928 (Simulation time: 4 hr 13 min 43 sec) 
Heartbeat CPU 0 instructions: 74000002 cycles: 452703480 heartbeat IPC: 0.114237 cumulative IPC: 0.143345 (Simulation time: 4 hr 15 min 13 sec) 
Heartbeat CPU 0 instructions: 75000000 cycles: 459475791 heartbeat IPC: 0.14766 cumulative IPC: 0.14341 (Simulation time: 4 hr 16 min 41 sec) 
Heartbeat CPU 0 instructions: 76000000 cycles: 465180144 heartbeat IPC: 0.175305 cumulative IPC: 0.143806 (Simulation time: 4 hr 18 min 2 sec) 
Heartbeat CPU 0 instructions: 77000000 cycles: 471008273 heartbeat IPC: 0.171582 cumulative IPC: 0.144155 (Simulation time: 4 hr 19 min 23 sec) 
Heartbeat CPU 0 instructions: 78000001 cycles: 476894351 heartbeat IPC: 0.169893 cumulative IPC: 0.144477 (Simulation time: 4 hr 20 min 31 sec) 
Heartbeat CPU 0 instructions: 79000000 cycles: 485386219 heartbeat IPC: 0.11776 cumulative IPC: 0.144003 (Simulation time: 4 hr 21 min 56 sec) 
Heartbeat CPU 0 instructions: 80000000 cycles: 491163733 heartbeat IPC: 0.173085 cumulative IPC: 0.14435 (Simulation time: 4 hr 22 min 53 sec) 
Heartbeat CPU 0 instructions: 81000000 cycles: 498264945 heartbeat IPC: 0.140821 cumulative IPC: 0.144299 (Simulation time: 4 hr 23 min 43 sec) 
Heartbeat CPU 0 instructions: 82000001 cycles: 505490163 heartbeat IPC: 0.138404 cumulative IPC: 0.144213 (Simulation time: 4 hr 24 min 35 sec) 
Heartbeat CPU 0 instructions: 83000002 cycles: 511126693 heartbeat IPC: 0.177414 cumulative IPC: 0.144584 (Simulation time: 4 hr 25 min 17 sec) 
Heartbeat CPU 0 instructions: 84000000 cycles: 517259834 heartbeat IPC: 0.163048 cumulative IPC: 0.144806 (Simulation time: 4 hr 26 min 3 sec) 
Heartbeat CPU 0 instructions: 85000000 cycles: 524234376 heartbeat IPC: 0.143379 cumulative IPC: 0.144786 (Simulation time: 4 hr 26 min 59 sec) 
Heartbeat CPU 0 instructions: 86000001 cycles: 532457614 heartbeat IPC: 0.121607 cumulative IPC: 0.144424 (Simulation time: 4 hr 27 min 54 sec) 
Heartbeat CPU 0 instructions: 87000000 cycles: 537927065 heartbeat IPC: 0.182834 cumulative IPC: 0.144819 (Simulation time: 4 hr 28 min 31 sec) 
Heartbeat CPU 0 instructions: 88000000 cycles: 543672770 heartbeat IPC: 0.174043 cumulative IPC: 0.145132 (Simulation time: 4 hr 29 min 3 sec) 
Heartbeat CPU 0 instructions: 89000002 cycles: 549829765 heartbeat IPC: 0.162417 cumulative IPC: 0.145327 (Simulation time: 4 hr 29 min 33 sec) 
Heartbeat CPU 0 instructions: 90000002 cycles: 555993856 heartbeat IPC: 0.16223 cumulative IPC: 0.145517 (Simulation time: 4 hr 30 min 5 sec) 
Heartbeat CPU 0 instructions: 91000001 cycles: 564467720 heartbeat IPC: 0.11801 cumulative IPC: 0.145099 (Simulation time: 4 hr 30 min 32 sec) 
Heartbeat CPU 0 instructions: 92000000 cycles: 570760980 heartbeat IPC: 0.1589 cumulative IPC: 0.145253 (Simulation time: 4 hr 30 min 54 sec) 
Heartbeat CPU 0 instructions: 93000003 cycles: 577803943 heartbeat IPC: 0.141986 cumulative IPC: 0.145213 (Simulation time: 4 hr 31 min 17 sec) 
Heartbeat CPU 0 instructions: 94000000 cycles: 585385956 heartbeat IPC: 0.131891 cumulative IPC: 0.145039 (Simulation time: 4 hr 31 min 36 sec) 
Heartbeat CPU 0 instructions: 95000000 cycles: 591943944 heartbeat IPC: 0.152486 cumulative IPC: 0.145122 (Simulation time: 4 hr 31 min 55 sec) 
Heartbeat CPU 0 instructions: 96000000 cycles: 600654571 heartbeat IPC: 0.114802 cumulative IPC: 0.144678 (Simulation time: 4 hr 32 min 14 sec) 
Heartbeat CPU 0 instructions: 97000000 cycles: 606880760 heartbeat IPC: 0.160612 cumulative IPC: 0.144843 (Simulation time: 4 hr 32 min 28 sec) 
Heartbeat CPU 0 instructions: 98000003 cycles: 614093666 heartbeat IPC: 0.138641 cumulative IPC: 0.144769 (Simulation time: 4 hr 32 min 43 sec) 
Heartbeat CPU 0 instructions: 99000001 cycles: 621854571 heartbeat IPC: 0.128851 cumulative IPC: 0.144569 (Simulation time: 4 hr 32 min 57 sec) 
Heartbeat CPU 0 instructions: 100000000 cycles: 629424301 heartbeat IPC: 0.132105 cumulative IPC: 0.144417 (Simulation time: 4 hr 33 min 11 sec) 
Heartbeat CPU 0 instructions: 101000000 cycles: 638324879 heartbeat IPC: 0.112352 cumulative IPC: 0.143966 (Simulation time: 4 hr 33 min 25 sec) 
Heartbeat CPU 0 instructions: 102000001 cycles: 644220815 heartbeat IPC: 0.169609 cumulative IPC: 0.144203 (Simulation time: 4 hr 33 min 35 sec) 
Heartbeat CPU 0 instructions: 103000000 cycles: 650345252 heartbeat IPC: 0.16328 cumulative IPC: 0.144384 (Simulation time: 4 hr 33 min 45 sec) 
Heartbeat CPU 0 instructions: 104000000 cycles: 656375947 heartbeat IPC: 0.165818 cumulative IPC: 0.144583 (Simulation time: 4 hr 33 min 56 sec) 
Heartbeat CPU 0 instructions: 105000000 cycles: 661891186 heartbeat IPC: 0.181316 cumulative IPC: 0.144892 (Simulation time: 4 hr 34 min 5 sec) 
Heartbeat CPU 0 instructions: 106000000 cycles: 670556808 heartbeat IPC: 0.115399 cumulative IPC: 0.144507 (Simulation time: 4 hr 34 min 14 sec) 
Heartbeat CPU 0 instructions: 107000002 cycles: 676818004 heartbeat IPC: 0.159714 cumulative IPC: 0.144649 (Simulation time: 4 hr 34 min 21 sec) 
Heartbeat CPU 0 instructions: 108000000 cycles: 685464227 heartbeat IPC: 0.115657 cumulative IPC: 0.14428 (Simulation time: 4 hr 34 min 29 sec) 
Heartbeat CPU 0 instructions: 109000003 cycles: 691639728 heartbeat IPC: 0.161931 cumulative IPC: 0.144439 (Simulation time: 4 hr 34 min 36 sec) 
Heartbeat CPU 0 instructions: 110000003 cycles: 697651538 heartbeat IPC: 0.166339 cumulative IPC: 0.144629 (Simulation time: 4 hr 34 min 42 sec) 
Finished CPU 0 instructions: 100000001 cycles: 691421911 cummulative IPC: 0.144629 (Simulation time: 4 hr 34 min 42 sec) 

ChampSim completed all CPUs

Region of Interest Statistics

CPU 0 cummulative IPC: 0.144629 instructions: 100000001 cycles: 691421911
LLC TOTAL     ACCESS:    8750014  HIT:    3018843  MISS:    5731171
LLC LOAD      ACCESS:    1885034  HIT:     638270  MISS:    1246764
LLC RFO       ACCESS:    1828613  HIT:     800431  MISS:    1028182
LLC PREFETCH  ACCESS:    2273584  HIT:      69530  MISS:    2204054
LLC WRITEBACK ACCESS:    2762783  HIT:    1510612  MISS:    1252171
