
*** ChampSim Multicore Out-of-Order Simulator ***

Warmup Instructions: 10000000
Simulation Instructions: 100000000
Configuration: 2
Number of CPUs: 1
LLC sets: 2048
LLC ways: 16
Off-chip DRAM Channels: 1 Width: 64-bit Data Rate: 1600 MT/s

CPU 0 runs /datasets/cs240c-wi22-a00-public/data/Assignment2-gz/bzip2_259B.trace.gz
CPU 0 L1D next line prefetcher
CPU 0 L2C IP-based stride prefetcher
config 2, num_core 1, llc_sets 2048
Heartbeat CPU 0 instructions: 1000002 cycles: 428875 heartbeat IPC: 2.33169 cumulative IPC: 2.33169 (Simulation time: 0 hr 2 min 55 sec) 
Heartbeat CPU 0 instructions: 2000003 cycles: 861057 heartbeat IPC: 2.31384 cumulative IPC: 2.32273 (Simulation time: 0 hr 5 min 46 sec) 
Heartbeat CPU 0 instructions: 3000001 cycles: 1286790 heartbeat IPC: 2.34889 cumulative IPC: 2.33138 (Simulation time: 0 hr 8 min 22 sec) 
Heartbeat CPU 0 instructions: 4000000 cycles: 1685065 heartbeat IPC: 2.51083 cumulative IPC: 2.3738 (Simulation time: 0 hr 10 min 54 sec) 
Heartbeat CPU 0 instructions: 5000001 cycles: 2103498 heartbeat IPC: 2.38987 cumulative IPC: 2.37699 (Simulation time: 0 hr 13 min 28 sec) 
Heartbeat CPU 0 instructions: 6000001 cycles: 2532861 heartbeat IPC: 2.32903 cumulative IPC: 2.36886 (Simulation time: 0 hr 16 min 26 sec) 
Heartbeat CPU 0 instructions: 7000003 cycles: 2961909 heartbeat IPC: 2.33075 cumulative IPC: 2.36334 (Simulation time: 0 hr 19 min 21 sec) 
Heartbeat CPU 0 instructions: 8000000 cycles: 3391722 heartbeat IPC: 2.32659 cumulative IPC: 2.35868 (Simulation time: 0 hr 22 min 35 sec) 
Heartbeat CPU 0 instructions: 9000000 cycles: 3819848 heartbeat IPC: 2.33576 cumulative IPC: 2.35611 (Simulation time: 0 hr 25 min 27 sec) 
Heartbeat CPU 0 instructions: 10000002 cycles: 4193920 heartbeat IPC: 2.67329 cumulative IPC: 2.3844 (Simulation time: 0 hr 27 min 49 sec) 

Warmup complete CPU 0 instructions: 10000002 cycles: 4193920 (Simulation time: 0 hr 27 min 49 sec) 

Heartbeat CPU 0 instructions: 11000002 cycles: 5082526 heartbeat IPC: 1.12536 cumulative IPC: 1.12536 (Simulation time: 0 hr 30 min 31 sec) 
Heartbeat CPU 0 instructions: 12000000 cycles: 6170288 heartbeat IPC: 0.919317 cumulative IPC: 1.01196 (Simulation time: 0 hr 33 min 40 sec) 
Heartbeat CPU 0 instructions: 13000002 cycles: 7104058 heartbeat IPC: 1.07093 cumulative IPC: 1.03088 (Simulation time: 0 hr 36 min 46 sec) 
Heartbeat CPU 0 instructions: 14000003 cycles: 8100325 heartbeat IPC: 1.00375 cumulative IPC: 1.02396 (Simulation time: 0 hr 40 min 4 sec) 
Heartbeat CPU 0 instructions: 15000002 cycles: 9175343 heartbeat IPC: 0.930216 cumulative IPC: 1.00373 (Simulation time: 0 hr 43 min 26 sec) 
Heartbeat CPU 0 instructions: 16000000 cycles: 10224153 heartbeat IPC: 0.95346 cumulative IPC: 0.994986 (Simulation time: 0 hr 46 min 37 sec) 
Heartbeat CPU 0 instructions: 17000002 cycles: 11379550 heartbeat IPC: 0.865505 cumulative IPC: 0.974167 (Simulation time: 0 hr 50 min 6 sec) 
Heartbeat CPU 0 instructions: 18000001 cycles: 12578116 heartbeat IPC: 0.83433 cumulative IPC: 0.954176 (Simulation time: 0 hr 53 min 14 sec) 
Heartbeat CPU 0 instructions: 19000003 cycles: 13665927 heartbeat IPC: 0.919279 cumulative IPC: 0.950168 (Simulation time: 0 hr 55 min 56 sec) 
Heartbeat CPU 0 instructions: 20000000 cycles: 14753429 heartbeat IPC: 0.919536 cumulative IPC: 0.947014 (Simulation time: 0 hr 58 min 51 sec) 
Heartbeat CPU 0 instructions: 21000001 cycles: 15679540 heartbeat IPC: 1.07979 cumulative IPC: 0.957719 (Simulation time: 1 hr 1 min 24 sec) 
Heartbeat CPU 0 instructions: 22000001 cycles: 16598848 heartbeat IPC: 1.08777 cumulative IPC: 0.967357 (Simulation time: 1 hr 4 min 25 sec) 
Heartbeat CPU 0 instructions: 23000002 cycles: 17503479 heartbeat IPC: 1.10542 cumulative IPC: 0.976742 (Simulation time: 1 hr 6 min 55 sec) 
Heartbeat CPU 0 instructions: 24000000 cycles: 18410577 heartbeat IPC: 1.10241 cumulative IPC: 0.98476 (Simulation time: 1 hr 9 min 27 sec) 
Heartbeat CPU 0 instructions: 25000000 cycles: 19310496 heartbeat IPC: 1.11121 cumulative IPC: 0.992288 (Simulation time: 1 hr 11 min 58 sec) 
Heartbeat CPU 0 instructions: 26000000 cycles: 20260979 heartbeat IPC: 1.0521 cumulative IPC: 0.995826 (Simulation time: 1 hr 14 min 46 sec) 
Heartbeat CPU 0 instructions: 27000003 cycles: 21210956 heartbeat IPC: 1.05266 cumulative IPC: 0.998999 (Simulation time: 1 hr 17 min 22 sec) 
Heartbeat CPU 0 instructions: 28000000 cycles: 22123950 heartbeat IPC: 1.09529 cumulative IPC: 1.0039 (Simulation time: 1 hr 20 min 1 sec) 
Heartbeat CPU 0 instructions: 29000000 cycles: 23029802 heartbeat IPC: 1.10393 cumulative IPC: 1.00871 (Simulation time: 1 hr 22 min 48 sec) 
Heartbeat CPU 0 instructions: 30000001 cycles: 24001705 heartbeat IPC: 1.02891 cumulative IPC: 1.0097 (Simulation time: 1 hr 25 min 23 sec) 
Heartbeat CPU 0 instructions: 31000001 cycles: 24908247 heartbeat IPC: 1.10309 cumulative IPC: 1.01379 (Simulation time: 1 hr 27 min 57 sec) 
Heartbeat CPU 0 instructions: 32000000 cycles: 25803932 heartbeat IPC: 1.11646 cumulative IPC: 1.01805 (Simulation time: 1 hr 30 min 34 sec) 
Heartbeat CPU 0 instructions: 33000002 cycles: 26925828 heartbeat IPC: 0.89135 cumulative IPC: 1.01179 (Simulation time: 1 hr 33 min 29 sec) 
Heartbeat CPU 0 instructions: 34000003 cycles: 28183542 heartbeat IPC: 0.795094 cumulative IPC: 1.00043 (Simulation time: 1 hr 36 min 32 sec) 
Heartbeat CPU 0 instructions: 35000001 cycles: 29244026 heartbeat IPC: 0.942964 cumulative IPC: 0.998 (Simulation time: 1 hr 39 min 19 sec) 
Heartbeat CPU 0 instructions: 36000000 cycles: 30421506 heartbeat IPC: 0.84927 cumulative IPC: 0.991323 (Simulation time: 1 hr 42 min 2 sec) 
Heartbeat CPU 0 instructions: 37000002 cycles: 31464519 heartbeat IPC: 0.958763 cumulative IPC: 0.990077 (Simulation time: 1 hr 44 min 29 sec) 
Heartbeat CPU 0 instructions: 38000003 cycles: 32578907 heartbeat IPC: 0.897354 cumulative IPC: 0.986437 (Simulation time: 1 hr 47 min 0 sec) 
Heartbeat CPU 0 instructions: 39000001 cycles: 33722879 heartbeat IPC: 0.874146 cumulative IPC: 0.982087 (Simulation time: 1 hr 49 min 36 sec) 
Heartbeat CPU 0 instructions: 40000000 cycles: 34791750 heartbeat IPC: 0.935566 cumulative IPC: 0.980462 (Simulation time: 1 hr 52 min 14 sec) 
Heartbeat CPU 0 instructions: 41000001 cycles: 35980507 heartbeat IPC: 0.841216 cumulative IPC: 0.975254 (Simulation time: 1 hr 54 min 37 sec) 
Heartbeat CPU 0 instructions: 42000000 cycles: 37188837 heartbeat IPC: 0.827588 cumulative IPC: 0.969846 (Simulation time: 1 hr 57 min 16 sec) 
Heartbeat CPU 0 instructions: 43000003 cycles: 38405348 heartbeat IPC: 0.822025 cumulative IPC: 0.96459 (Simulation time: 1 hr 59 min 46 sec) 
Heartbeat CPU 0 instructions: 44000000 cycles: 39618405 heartbeat IPC: 0.824361 cumulative IPC: 0.959788 (Simulation time: 2 hr 2 min 20 sec) 
Heartbeat CPU 0 instructions: 45000000 cycles: 40840142 heartbeat IPC: 0.818507 cumulative IPC: 0.955078 (Simulation time: 2 hr 4 min 58 sec) 
Heartbeat CPU 0 instructions: 46000002 cycles: 42079253 heartbeat IPC: 0.807032 cumulative IPC: 0.950236 (Simulation time: 2 hr 7 min 35 sec) 
Heartbeat CPU 0 instructions: 47000000 cycles: 43309909 heartbeat IPC: 0.812573 cumulative IPC: 0.945905 (Simulation time: 2 hr 10 min 10 sec) 
Heartbeat CPU 0 instructions: 48000000 cycles: 44547792 heartbeat IPC: 0.807831 cumulative IPC: 0.941669 (Simulation time: 2 hr 12 min 42 sec) 
Heartbeat CPU 0 instructions: 49000003 cycles: 45816261 heartbeat IPC: 0.788354 cumulative IPC: 0.936997 (Simulation time: 2 hr 15 min 19 sec) 
Heartbeat CPU 0 instructions: 50000001 cycles: 46854787 heartbeat IPC: 0.962901 cumulative IPC: 0.937627 (Simulation time: 2 hr 18 min 3 sec) 
Heartbeat CPU 0 instructions: 51000002 cycles: 48018375 heartbeat IPC: 0.859412 cumulative IPC: 0.935551 (Simulation time: 2 hr 20 min 50 sec) 
Heartbeat CPU 0 instructions: 52000000 cycles: 49136539 heartbeat IPC: 0.894321 cumulative IPC: 0.934525 (Simulation time: 2 hr 23 min 32 sec) 
Heartbeat CPU 0 instructions: 53000001 cycles: 50331504 heartbeat IPC: 0.836845 cumulative IPC: 0.931995 (Simulation time: 2 hr 25 min 53 sec) 
Heartbeat CPU 0 instructions: 54000000 cycles: 51555859 heartbeat IPC: 0.816756 cumulative IPC: 0.929016 (Simulation time: 2 hr 28 min 32 sec) 
Heartbeat CPU 0 instructions: 55000000 cycles: 52707462 heartbeat IPC: 0.868355 cumulative IPC: 0.927576 (Simulation time: 2 hr 31 min 16 sec) 
Heartbeat CPU 0 instructions: 56000000 cycles: 53931777 heartbeat IPC: 0.816783 cumulative IPC: 0.924849 (Simulation time: 2 hr 33 min 43 sec) 
Heartbeat CPU 0 instructions: 57000000 cycles: 55152827 heartbeat IPC: 0.818967 cumulative IPC: 0.922312 (Simulation time: 2 hr 36 min 3 sec) 
Heartbeat CPU 0 instructions: 58000002 cycles: 56183783 heartbeat IPC: 0.969975 cumulative IPC: 0.923257 (Simulation time: 2 hr 38 min 24 sec) 
Heartbeat CPU 0 instructions: 59000000 cycles: 57284680 heartbeat IPC: 0.908348 cumulative IPC: 0.922948 (Simulation time: 2 hr 40 min 57 sec) 
Heartbeat CPU 0 instructions: 60000000 cycles: 58462976 heartbeat IPC: 0.848683 cumulative IPC: 0.921335 (Simulation time: 2 hr 43 min 24 sec) 
Heartbeat CPU 0 instructions: 61000000 cycles: 59607121 heartbeat IPC: 0.874015 cumulative IPC: 0.920358 (Simulation time: 2 hr 45 min 50 sec) 
Heartbeat CPU 0 instructions: 62000002 cycles: 60450858 heartbeat IPC: 1.18521 cumulative IPC: 0.92433 (Simulation time: 2 hr 48 min 25 sec) 
Heartbeat CPU 0 instructions: 63000003 cycles: 61343902 heartbeat IPC: 1.11977 cumulative IPC: 0.927384 (Simulation time: 2 hr 51 min 0 sec) 
Heartbeat CPU 0 instructions: 64000000 cycles: 62402677 heartbeat IPC: 0.944485 cumulative IPC: 0.927695 (Simulation time: 2 hr 54 min 9 sec) 
Heartbeat CPU 0 instructions: 65000003 cycles: 63390237 heartbeat IPC: 1.0126 cumulative IPC: 0.929112 (Simulation time: 2 hr 57 min 13 sec) 
Heartbeat CPU 0 instructions: 66000003 cycles: 64378231 heartbeat IPC: 1.01215 cumulative IPC: 0.930475 (Simulation time: 3 hr 0 min 14 sec) 
Heartbeat CPU 0 instructions: 67000003 cycles: 65447640 heartbeat IPC: 0.935096 cumulative IPC: 0.930556 (Simulation time: 3 hr 3 min 18 sec) 
Heartbeat CPU 0 instructions: 68000000 cycles: 66566558 heartbeat IPC: 0.893718 cumulative IPC: 0.929895 (Simulation time: 3 hr 6 min 19 sec) 
Heartbeat CPU 0 instructions: 69000003 cycles: 67675137 heartbeat IPC: 0.902058 cumulative IPC: 0.929409 (Simulation time: 3 hr 9 min 12 sec) 
Heartbeat CPU 0 instructions: 70000003 cycles: 68972397 heartbeat IPC: 0.770855 cumulative IPC: 0.926234 (Simulation time: 3 hr 12 min 11 sec) 
Heartbeat CPU 0 instructions: 71000000 cycles: 70386083 heartbeat IPC: 0.707369 cumulative IPC: 0.921559 (Simulation time: 3 hr 15 min 2 sec) 
Heartbeat CPU 0 instructions: 72000000 cycles: 71552565 heartbeat IPC: 0.857279 cumulative IPC: 0.920446 (Simulation time: 3 hr 17 min 50 sec) 
Heartbeat CPU 0 instructions: 73000003 cycles: 72854781 heartbeat IPC: 0.767924 cumulative IPC: 0.917553 (Simulation time: 3 hr 20 min 36 sec) 
Heartbeat CPU 0 instructions: 74000001 cycles: 74116614 heartbeat IPC: 0.792496 cumulative IPC: 0.915297 (Simulation time: 3 hr 23 min 14 sec) 
Heartbeat CPU 0 instructions: 75000000 cycles: 75278004 heartbeat IPC: 0.861036 cumulative IPC: 0.91441 (Simulation time: 3 hr 25 min 55 sec) 
Heartbeat CPU 0 instructions: 76000000 cycles: 76361749 heartbeat IPC: 0.922726 cumulative IPC: 0.914535 (Simulation time: 3 hr 28 min 25 sec) 
Heartbeat CPU 0 instructions: 77000003 cycles: 77319466 heartbeat IPC: 1.04415 cumulative IPC: 0.916232 (Simulation time: 3 hr 30 min 49 sec) 
Heartbeat CPU 0 instructions: 78000000 cycles: 78274454 heartbeat IPC: 1.04713 cumulative IPC: 0.91792 (Simulation time: 3 hr 33 min 14 sec) 
Heartbeat CPU 0 instructions: 79000003 cycles: 79328993 heartbeat IPC: 0.948285 cumulative IPC: 0.918346 (Simulation time: 3 hr 35 min 45 sec) 
Heartbeat CPU 0 instructions: 80000000 cycles: 80553072 heartbeat IPC: 0.816938 cumulative IPC: 0.91672 (Simulation time: 3 hr 38 min 18 sec) 
Heartbeat CPU 0 instructions: 81000001 cycles: 81742674 heartbeat IPC: 0.840618 cumulative IPC: 0.915553 (Simulation time: 3 hr 40 min 43 sec) 
Heartbeat CPU 0 instructions: 82000000 cycles: 82866689 heartbeat IPC: 0.889667 cumulative IPC: 0.915183 (Simulation time: 3 hr 43 min 14 sec) 
Heartbeat CPU 0 instructions: 83000002 cycles: 83915290 heartbeat IPC: 0.953654 cumulative IPC: 0.915689 (Simulation time: 3 hr 45 min 37 sec) 
Heartbeat CPU 0 instructions: 84000000 cycles: 84858634 heartbeat IPC: 1.06006 cumulative IPC: 0.917378 (Simulation time: 3 hr 47 min 56 sec) 
Heartbeat CPU 0 instructions: 85000003 cycles: 85796017 heartbeat IPC: 1.0668 cumulative IPC: 0.919094 (Simulation time: 3 hr 50 min 4 sec) 
Heartbeat CPU 0 instructions: 86000003 cycles: 86829963 heartbeat IPC: 0.967169 cumulative IPC: 0.919696 (Simulation time: 3 hr 52 min 9 sec) 
Heartbeat CPU 0 instructions: 87000002 cycles: 87879321 heartbeat IPC: 0.952963 cumulative IPC: 0.920113 (Simulation time: 3 hr 54 min 9 sec) 
Heartbeat CPU 0 instructions: 88000000 cycles: 88977646 heartbeat IPC: 0.910475 cumulative IPC: 0.919988 (Simulation time: 3 hr 56 min 2 sec) 
Heartbeat CPU 0 instructions: 89000002 cycles: 89984018 heartbeat IPC: 0.99367 cumulative IPC: 0.920852 (Simulation time: 3 hr 57 min 41 sec) 
Heartbeat CPU 0 instructions: 90000001 cycles: 91107464 heartbeat IPC: 0.890118 cumulative IPC: 0.920455 (Simulation time: 3 hr 59 min 23 sec) 
Heartbeat CPU 0 instructions: 91000002 cycles: 92220300 heartbeat IPC: 0.898606 cumulative IPC: 0.920179 (Simulation time: 4 hr 0 min 57 sec) 
Heartbeat CPU 0 instructions: 92000000 cycles: 93259114 heartbeat IPC: 0.962634 cumulative IPC: 0.920674 (Simulation time: 4 hr 2 min 39 sec) 
Heartbeat CPU 0 instructions: 93000000 cycles: 94448217 heartbeat IPC: 0.84097 cumulative IPC: 0.919624 (Simulation time: 4 hr 4 min 17 sec) 
Heartbeat CPU 0 instructions: 94000003 cycles: 95624415 heartbeat IPC: 0.8502 cumulative IPC: 0.918731 (Simulation time: 4 hr 5 min 41 sec) 
Heartbeat CPU 0 instructions: 95000002 cycles: 96809269 heartbeat IPC: 0.843985 cumulative IPC: 0.917774 (Simulation time: 4 hr 7 min 7 sec) 
Heartbeat CPU 0 instructions: 96000000 cycles: 97978688 heartbeat IPC: 0.855124 cumulative IPC: 0.916993 (Simulation time: 4 hr 8 min 26 sec) 
Heartbeat CPU 0 instructions: 97000002 cycles: 99195611 heartbeat IPC: 0.821746 cumulative IPC: 0.915773 (Simulation time: 4 hr 9 min 40 sec) 
Heartbeat CPU 0 instructions: 98000000 cycles: 100428065 heartbeat IPC: 0.811388 cumulative IPC: 0.914436 (Simulation time: 4 hr 10 min 46 sec) 
Heartbeat CPU 0 instructions: 99000000 cycles: 101667740 heartbeat IPC: 0.806663 cumulative IPC: 0.913066 (Simulation time: 4 hr 11 min 53 sec) 
Heartbeat CPU 0 instructions: 100000000 cycles: 102909801 heartbeat IPC: 0.805113 cumulative IPC: 0.911707 (Simulation time: 4 hr 12 min 55 sec) 
Heartbeat CPU 0 instructions: 101000003 cycles: 104058355 heartbeat IPC: 0.870663 cumulative IPC: 0.911235 (Simulation time: 4 hr 13 min 56 sec) 
Heartbeat CPU 0 instructions: 102000000 cycles: 105177587 heartbeat IPC: 0.893467 cumulative IPC: 0.911038 (Simulation time: 4 hr 14 min 57 sec) 
Heartbeat CPU 0 instructions: 103000000 cycles: 106278940 heartbeat IPC: 0.907974 cumulative IPC: 0.911005 (Simulation time: 4 hr 15 min 49 sec) 
Heartbeat CPU 0 instructions: 104000000 cycles: 107432072 heartbeat IPC: 0.867203 cumulative IPC: 0.910516 (Simulation time: 4 hr 16 min 45 sec) 
Heartbeat CPU 0 instructions: 105000002 cycles: 108644103 heartbeat IPC: 0.825063 cumulative IPC: 0.909525 (Simulation time: 4 hr 17 min 41 sec) 
Heartbeat CPU 0 instructions: 106000001 cycles: 109777662 heartbeat IPC: 0.882176 cumulative IPC: 0.909231 (Simulation time: 4 hr 18 min 40 sec) 
Heartbeat CPU 0 instructions: 107000000 cycles: 110981452 heartbeat IPC: 0.830709 cumulative IPC: 0.908346 (Simulation time: 4 hr 19 min 33 sec) 
Heartbeat CPU 0 instructions: 108000000 cycles: 112180001 heartbeat IPC: 0.834342 cumulative IPC: 0.907524 (Simulation time: 4 hr 20 min 22 sec) 
Heartbeat CPU 0 instructions: 109000000 cycles: 113192350 heartbeat IPC: 0.987802 cumulative IPC: 0.90827 (Simulation time: 4 hr 21 min 10 sec) 
Heartbeat CPU 0 instructions: 110000000 cycles: 114353113 heartbeat IPC: 0.861502 cumulative IPC: 0.907777 (Simulation time: 4 hr 21 min 59 sec) 
Finished CPU 0 instructions: 100000002 cycles: 110159195 cummulative IPC: 0.907777 (Simulation time: 4 hr 21 min 59 sec) 

ChampSim completed all CPUs

Region of Interest Statistics

CPU 0 cummulative IPC: 0.907777 instructions: 100000002 cycles: 110159195
LLC TOTAL     ACCESS:    1373512  HIT:     953727  MISS:     419785
LLC LOAD      ACCESS:     396195  HIT:     342299  MISS:      53896
LLC RFO       ACCESS:     104382  HIT:      48504  MISS:      55878
LLC PREFETCH  ACCESS:     675953  HIT:     457704  MISS:     218249
LLC WRITEBACK ACCESS:     196982  HIT:     105220  MISS:      91762
