
*** ChampSim Multicore Out-of-Order Simulator ***

Warmup Instructions: 10000000
Simulation Instructions: 100000000
Configuration: 2
Number of CPUs: 1
LLC sets: 2048
LLC ways: 16
Off-chip DRAM Channels: 1 Width: 64-bit Data Rate: 1600 MT/s

CPU 0 runs /datasets/cs240c-wi22-a00-public/data/Assignment2-gz/calculix_2655B.trace.gz
CPU 0 L1D next line prefetcher
CPU 0 L2C IP-based stride prefetcher
config 2, num_core 1, llc_sets 2048
Heartbeat CPU 0 instructions: 1000003 cycles: 392363 heartbeat IPC: 2.54867 cumulative IPC: 2.54867 (Simulation time: 0 hr 1 min 54 sec) 
Heartbeat CPU 0 instructions: 2000001 cycles: 785087 heartbeat IPC: 2.54631 cumulative IPC: 2.54749 (Simulation time: 0 hr 3 min 47 sec) 
Heartbeat CPU 0 instructions: 3000002 cycles: 1177606 heartbeat IPC: 2.54765 cumulative IPC: 2.54754 (Simulation time: 0 hr 5 min 39 sec) 
Heartbeat CPU 0 instructions: 4000000 cycles: 1569370 heartbeat IPC: 2.55255 cumulative IPC: 2.54879 (Simulation time: 0 hr 7 min 33 sec) 
Heartbeat CPU 0 instructions: 5000003 cycles: 1961558 heartbeat IPC: 2.54981 cumulative IPC: 2.549 (Simulation time: 0 hr 9 min 22 sec) 
Heartbeat CPU 0 instructions: 6000003 cycles: 2353701 heartbeat IPC: 2.55009 cumulative IPC: 2.54918 (Simulation time: 0 hr 11 min 16 sec) 
Heartbeat CPU 0 instructions: 7000002 cycles: 2745891 heartbeat IPC: 2.54978 cumulative IPC: 2.54926 (Simulation time: 0 hr 13 min 10 sec) 
Heartbeat CPU 0 instructions: 8000000 cycles: 3137917 heartbeat IPC: 2.55085 cumulative IPC: 2.54946 (Simulation time: 0 hr 14 min 55 sec) 
Heartbeat CPU 0 instructions: 9000001 cycles: 3530136 heartbeat IPC: 2.5496 cumulative IPC: 2.54948 (Simulation time: 0 hr 16 min 38 sec) 
Heartbeat CPU 0 instructions: 10000000 cycles: 3921649 heartbeat IPC: 2.55419 cumulative IPC: 2.54995 (Simulation time: 0 hr 18 min 35 sec) 

Warmup complete CPU 0 instructions: 10000004 cycles: 3921650 (Simulation time: 0 hr 18 min 35 sec) 

Heartbeat CPU 0 instructions: 11000001 cycles: 4407295 heartbeat IPC: 2.05912 cumulative IPC: 2.05911 (Simulation time: 0 hr 20 min 29 sec) 
Heartbeat CPU 0 instructions: 12000000 cycles: 4854693 heartbeat IPC: 2.23514 cumulative IPC: 2.14352 (Simulation time: 0 hr 22 min 24 sec) 
Heartbeat CPU 0 instructions: 13000000 cycles: 5296902 heartbeat IPC: 2.26137 cumulative IPC: 2.18142 (Simulation time: 0 hr 24 min 28 sec) 
Heartbeat CPU 0 instructions: 14000002 cycles: 5730792 heartbeat IPC: 2.30474 cumulative IPC: 2.21099 (Simulation time: 0 hr 26 min 19 sec) 
Heartbeat CPU 0 instructions: 15000001 cycles: 6157385 heartbeat IPC: 2.34415 cumulative IPC: 2.2364 (Simulation time: 0 hr 28 min 11 sec) 
Heartbeat CPU 0 instructions: 16000000 cycles: 6777593 heartbeat IPC: 1.61236 cumulative IPC: 2.10088 (Simulation time: 0 hr 30 min 16 sec) 
Heartbeat CPU 0 instructions: 17000000 cycles: 7261961 heartbeat IPC: 2.06455 cumulative IPC: 2.09561 (Simulation time: 0 hr 32 min 14 sec) 
Heartbeat CPU 0 instructions: 18000000 cycles: 7692465 heartbeat IPC: 2.32286 cumulative IPC: 2.12156 (Simulation time: 0 hr 34 min 16 sec) 
Heartbeat CPU 0 instructions: 19000000 cycles: 8118663 heartbeat IPC: 2.34633 cumulative IPC: 2.14438 (Simulation time: 0 hr 36 min 19 sec) 
Heartbeat CPU 0 instructions: 20000000 cycles: 8544998 heartbeat IPC: 2.34557 cumulative IPC: 2.16293 (Simulation time: 0 hr 38 min 21 sec) 
Heartbeat CPU 0 instructions: 21000002 cycles: 8970653 heartbeat IPC: 2.34933 cumulative IPC: 2.17865 (Simulation time: 0 hr 40 min 20 sec) 
Heartbeat CPU 0 instructions: 22000003 cycles: 9646757 heartbeat IPC: 1.47906 cumulative IPC: 2.09603 (Simulation time: 0 hr 42 min 25 sec) 
Heartbeat CPU 0 instructions: 23000000 cycles: 10179043 heartbeat IPC: 1.87868 cumulative IPC: 2.07754 (Simulation time: 0 hr 44 min 21 sec) 
Heartbeat CPU 0 instructions: 24000000 cycles: 10606636 heartbeat IPC: 2.33867 cumulative IPC: 2.09424 (Simulation time: 0 hr 46 min 24 sec) 
Heartbeat CPU 0 instructions: 25000003 cycles: 11032997 heartbeat IPC: 2.34544 cumulative IPC: 2.1093 (Simulation time: 0 hr 48 min 38 sec) 
Heartbeat CPU 0 instructions: 26000003 cycles: 11457671 heartbeat IPC: 2.35475 cumulative IPC: 2.12314 (Simulation time: 0 hr 50 min 40 sec) 
Heartbeat CPU 0 instructions: 27000000 cycles: 11911534 heartbeat IPC: 2.2033 cumulative IPC: 2.12769 (Simulation time: 0 hr 52 min 39 sec) 
Heartbeat CPU 0 instructions: 28000000 cycles: 12531517 heartbeat IPC: 1.61295 cumulative IPC: 2.09062 (Simulation time: 0 hr 54 min 41 sec) 
Heartbeat CPU 0 instructions: 29000003 cycles: 13093511 heartbeat IPC: 1.77938 cumulative IPC: 2.07155 (Simulation time: 0 hr 56 min 35 sec) 
Heartbeat CPU 0 instructions: 30000003 cycles: 13675561 heartbeat IPC: 1.71807 cumulative IPC: 2.05046 (Simulation time: 0 hr 58 min 35 sec) 
Heartbeat CPU 0 instructions: 31000002 cycles: 14144674 heartbeat IPC: 2.13168 cumulative IPC: 2.05419 (Simulation time: 1 hr 0 min 32 sec) 
Heartbeat CPU 0 instructions: 32000000 cycles: 14574752 heartbeat IPC: 2.32516 cumulative IPC: 2.06513 (Simulation time: 1 hr 2 min 36 sec) 
Heartbeat CPU 0 instructions: 33000003 cycles: 15060287 heartbeat IPC: 2.05959 cumulative IPC: 2.06488 (Simulation time: 1 hr 4 min 40 sec) 
Heartbeat CPU 0 instructions: 34000002 cycles: 15718311 heartbeat IPC: 1.5197 cumulative IPC: 2.03447 (Simulation time: 1 hr 6 min 48 sec) 
Heartbeat CPU 0 instructions: 35000001 cycles: 16349276 heartbeat IPC: 1.58487 cumulative IPC: 2.01165 (Simulation time: 1 hr 8 min 57 sec) 
Heartbeat CPU 0 instructions: 36000000 cycles: 16971353 heartbeat IPC: 1.60752 cumulative IPC: 1.99238 (Simulation time: 1 hr 10 min 59 sec) 
Heartbeat CPU 0 instructions: 37000002 cycles: 17586156 heartbeat IPC: 1.62654 cumulative IPC: 1.97592 (Simulation time: 1 hr 13 min 7 sec) 
Heartbeat CPU 0 instructions: 38000002 cycles: 18178367 heartbeat IPC: 1.68859 cumulative IPC: 1.96399 (Simulation time: 1 hr 15 min 23 sec) 
Heartbeat CPU 0 instructions: 39000002 cycles: 18782612 heartbeat IPC: 1.65496 cumulative IPC: 1.95142 (Simulation time: 1 hr 17 min 41 sec) 
Heartbeat CPU 0 instructions: 40000000 cycles: 19283040 heartbeat IPC: 1.99829 cumulative IPC: 1.95295 (Simulation time: 1 hr 19 min 58 sec) 
Heartbeat CPU 0 instructions: 41000003 cycles: 19769515 heartbeat IPC: 2.05561 cumulative IPC: 1.9561 (Simulation time: 1 hr 22 min 19 sec) 
Heartbeat CPU 0 instructions: 42000001 cycles: 20288348 heartbeat IPC: 1.9274 cumulative IPC: 1.95519 (Simulation time: 1 hr 24 min 39 sec) 
Heartbeat CPU 0 instructions: 43000001 cycles: 20817531 heartbeat IPC: 1.88971 cumulative IPC: 1.95314 (Simulation time: 1 hr 26 min 55 sec) 
Heartbeat CPU 0 instructions: 44000000 cycles: 21522766 heartbeat IPC: 1.41797 cumulative IPC: 1.9317 (Simulation time: 1 hr 29 min 28 sec) 
Heartbeat CPU 0 instructions: 45000002 cycles: 21987960 heartbeat IPC: 2.14965 cumulative IPC: 1.93731 (Simulation time: 1 hr 31 min 47 sec) 
Heartbeat CPU 0 instructions: 46000003 cycles: 22504661 heartbeat IPC: 1.93536 cumulative IPC: 1.93725 (Simulation time: 1 hr 34 min 8 sec) 
Heartbeat CPU 0 instructions: 47000000 cycles: 23012014 heartbeat IPC: 1.97101 cumulative IPC: 1.93815 (Simulation time: 1 hr 36 min 27 sec) 
Heartbeat CPU 0 instructions: 48000000 cycles: 23556996 heartbeat IPC: 1.83492 cumulative IPC: 1.93529 (Simulation time: 1 hr 38 min 48 sec) 
Heartbeat CPU 0 instructions: 49000000 cycles: 24003833 heartbeat IPC: 2.23795 cumulative IPC: 1.94202 (Simulation time: 1 hr 41 min 7 sec) 
Heartbeat CPU 0 instructions: 50000002 cycles: 24487292 heartbeat IPC: 2.06843 cumulative IPC: 1.94499 (Simulation time: 1 hr 43 min 12 sec) 
Heartbeat CPU 0 instructions: 51000001 cycles: 24965663 heartbeat IPC: 2.09043 cumulative IPC: 1.9483 (Simulation time: 1 hr 45 min 31 sec) 
Heartbeat CPU 0 instructions: 52000000 cycles: 25401470 heartbeat IPC: 2.29459 cumulative IPC: 1.95532 (Simulation time: 1 hr 47 min 43 sec) 
Heartbeat CPU 0 instructions: 53000002 cycles: 25933281 heartbeat IPC: 1.88037 cumulative IPC: 1.95351 (Simulation time: 1 hr 50 min 3 sec) 
Heartbeat CPU 0 instructions: 54000002 cycles: 26733928 heartbeat IPC: 1.24899 cumulative IPC: 1.92879 (Simulation time: 1 hr 52 min 45 sec) 
Heartbeat CPU 0 instructions: 55000002 cycles: 27268916 heartbeat IPC: 1.8692 cumulative IPC: 1.92742 (Simulation time: 1 hr 55 min 5 sec) 
Heartbeat CPU 0 instructions: 56000000 cycles: 27754264 heartbeat IPC: 2.06037 cumulative IPC: 1.93013 (Simulation time: 1 hr 57 min 31 sec) 
Heartbeat CPU 0 instructions: 57000000 cycles: 28296085 heartbeat IPC: 1.84563 cumulative IPC: 1.92825 (Simulation time: 1 hr 59 min 54 sec) 
Heartbeat CPU 0 instructions: 58000003 cycles: 28746455 heartbeat IPC: 2.2204 cumulative IPC: 1.93355 (Simulation time: 2 hr 2 min 16 sec) 
Heartbeat CPU 0 instructions: 59000001 cycles: 29282549 heartbeat IPC: 1.86534 cumulative IPC: 1.93211 (Simulation time: 2 hr 4 min 31 sec) 
Heartbeat CPU 0 instructions: 60000000 cycles: 29765292 heartbeat IPC: 2.07149 cumulative IPC: 1.93471 (Simulation time: 2 hr 6 min 40 sec) 
Heartbeat CPU 0 instructions: 61000002 cycles: 30282020 heartbeat IPC: 1.93526 cumulative IPC: 1.93472 (Simulation time: 2 hr 9 min 1 sec) 
Heartbeat CPU 0 instructions: 62000003 cycles: 30807246 heartbeat IPC: 1.90394 cumulative IPC: 1.93412 (Simulation time: 2 hr 11 min 18 sec) 
Heartbeat CPU 0 instructions: 63000003 cycles: 31494638 heartbeat IPC: 1.45477 cumulative IPC: 1.92217 (Simulation time: 2 hr 13 min 45 sec) 
Heartbeat CPU 0 instructions: 64000000 cycles: 31986504 heartbeat IPC: 2.03307 cumulative IPC: 1.92411 (Simulation time: 2 hr 16 min 5 sec) 
Heartbeat CPU 0 instructions: 65000001 cycles: 32517624 heartbeat IPC: 1.88282 cumulative IPC: 1.92335 (Simulation time: 2 hr 18 min 31 sec) 
Heartbeat CPU 0 instructions: 66000001 cycles: 33178387 heartbeat IPC: 1.5134 cumulative IPC: 1.91409 (Simulation time: 2 hr 20 min 49 sec) 
Heartbeat CPU 0 instructions: 67000003 cycles: 33768977 heartbeat IPC: 1.69323 cumulative IPC: 1.90972 (Simulation time: 2 hr 22 min 57 sec) 
Heartbeat CPU 0 instructions: 68000000 cycles: 34346762 heartbeat IPC: 1.73074 cumulative IPC: 1.90632 (Simulation time: 2 hr 25 min 13 sec) 
Heartbeat CPU 0 instructions: 69000001 cycles: 34919343 heartbeat IPC: 1.74648 cumulative IPC: 1.90337 (Simulation time: 2 hr 27 min 24 sec) 
Heartbeat CPU 0 instructions: 70000002 cycles: 35499735 heartbeat IPC: 1.72298 cumulative IPC: 1.90005 (Simulation time: 2 hr 29 min 38 sec) 
Heartbeat CPU 0 instructions: 71000003 cycles: 36071664 heartbeat IPC: 1.74847 cumulative IPC: 1.89736 (Simulation time: 2 hr 31 min 56 sec) 
Heartbeat CPU 0 instructions: 72000000 cycles: 36650825 heartbeat IPC: 1.72663 cumulative IPC: 1.89433 (Simulation time: 2 hr 34 min 7 sec) 
Heartbeat CPU 0 instructions: 73000000 cycles: 37230008 heartbeat IPC: 1.72657 cumulative IPC: 1.89142 (Simulation time: 2 hr 36 min 12 sec) 
Heartbeat CPU 0 instructions: 74000000 cycles: 37799857 heartbeat IPC: 1.75485 cumulative IPC: 1.88912 (Simulation time: 2 hr 38 min 28 sec) 
Heartbeat CPU 0 instructions: 75000000 cycles: 38437928 heartbeat IPC: 1.56722 cumulative IPC: 1.88317 (Simulation time: 2 hr 40 min 40 sec) 
Heartbeat CPU 0 instructions: 76000000 cycles: 39031094 heartbeat IPC: 1.68587 cumulative IPC: 1.87984 (Simulation time: 2 hr 42 min 46 sec) 
Heartbeat CPU 0 instructions: 77000003 cycles: 39624024 heartbeat IPC: 1.68654 cumulative IPC: 1.87663 (Simulation time: 2 hr 44 min 49 sec) 
Heartbeat CPU 0 instructions: 78000002 cycles: 40213375 heartbeat IPC: 1.69678 cumulative IPC: 1.87371 (Simulation time: 2 hr 47 min 6 sec) 
Heartbeat CPU 0 instructions: 79000001 cycles: 40798238 heartbeat IPC: 1.7098 cumulative IPC: 1.87111 (Simulation time: 2 hr 49 min 21 sec) 
Heartbeat CPU 0 instructions: 80000000 cycles: 41387909 heartbeat IPC: 1.69586 cumulative IPC: 1.86835 (Simulation time: 2 hr 51 min 24 sec) 
Heartbeat CPU 0 instructions: 81000001 cycles: 41975871 heartbeat IPC: 1.70079 cumulative IPC: 1.86576 (Simulation time: 2 hr 53 min 35 sec) 
Heartbeat CPU 0 instructions: 82000003 cycles: 42556746 heartbeat IPC: 1.72154 cumulative IPC: 1.86359 (Simulation time: 2 hr 55 min 36 sec) 
Heartbeat CPU 0 instructions: 83000003 cycles: 43136529 heartbeat IPC: 1.72478 cumulative IPC: 1.86154 (Simulation time: 2 hr 57 min 50 sec) 
Heartbeat CPU 0 instructions: 84000000 cycles: 43752721 heartbeat IPC: 1.62287 cumulative IPC: 1.85785 (Simulation time: 3 hr 0 min 2 sec) 
Heartbeat CPU 0 instructions: 85000002 cycles: 44303766 heartbeat IPC: 1.81474 cumulative IPC: 1.85726 (Simulation time: 3 hr 2 min 13 sec) 
Heartbeat CPU 0 instructions: 86000001 cycles: 45024620 heartbeat IPC: 1.38724 cumulative IPC: 1.84901 (Simulation time: 3 hr 4 min 35 sec) 
Heartbeat CPU 0 instructions: 87000003 cycles: 45608788 heartbeat IPC: 1.71184 cumulative IPC: 1.84709 (Simulation time: 3 hr 6 min 44 sec) 
Heartbeat CPU 0 instructions: 88000000 cycles: 46075050 heartbeat IPC: 2.14471 cumulative IPC: 1.85038 (Simulation time: 3 hr 8 min 46 sec) 
Heartbeat CPU 0 instructions: 89000000 cycles: 46538690 heartbeat IPC: 2.15685 cumulative IPC: 1.85372 (Simulation time: 3 hr 10 min 44 sec) 
Heartbeat CPU 0 instructions: 90000001 cycles: 47005621 heartbeat IPC: 2.14165 cumulative IPC: 1.85684 (Simulation time: 3 hr 12 min 42 sec) 
Heartbeat CPU 0 instructions: 91000002 cycles: 47553663 heartbeat IPC: 1.82468 cumulative IPC: 1.85644 (Simulation time: 3 hr 14 min 42 sec) 
Heartbeat CPU 0 instructions: 92000000 cycles: 48083129 heartbeat IPC: 1.88869 cumulative IPC: 1.85682 (Simulation time: 3 hr 16 min 44 sec) 
Heartbeat CPU 0 instructions: 93000000 cycles: 48615511 heartbeat IPC: 1.87835 cumulative IPC: 1.85708 (Simulation time: 3 hr 18 min 44 sec) 
Heartbeat CPU 0 instructions: 94000003 cycles: 49131142 heartbeat IPC: 1.93938 cumulative IPC: 1.85802 (Simulation time: 3 hr 20 min 45 sec) 
Heartbeat CPU 0 instructions: 95000003 cycles: 49680663 heartbeat IPC: 1.81977 cumulative IPC: 1.85756 (Simulation time: 3 hr 22 min 39 sec) 
Heartbeat CPU 0 instructions: 96000000 cycles: 50160040 heartbeat IPC: 2.08603 cumulative IPC: 1.85993 (Simulation time: 3 hr 24 min 31 sec) 
Heartbeat CPU 0 instructions: 97000002 cycles: 50652686 heartbeat IPC: 2.02986 cumulative IPC: 1.86172 (Simulation time: 3 hr 26 min 29 sec) 
Heartbeat CPU 0 instructions: 98000001 cycles: 51126220 heartbeat IPC: 2.11178 cumulative IPC: 1.86423 (Simulation time: 3 hr 28 min 24 sec) 
Heartbeat CPU 0 instructions: 99000001 cycles: 51672462 heartbeat IPC: 1.83069 cumulative IPC: 1.86384 (Simulation time: 3 hr 30 min 23 sec) 
Heartbeat CPU 0 instructions: 100000000 cycles: 52161044 heartbeat IPC: 2.04674 cumulative IPC: 1.86569 (Simulation time: 3 hr 32 min 19 sec) 
Heartbeat CPU 0 instructions: 101000001 cycles: 52648091 heartbeat IPC: 2.05319 cumulative IPC: 1.86757 (Simulation time: 3 hr 34 min 18 sec) 
Heartbeat CPU 0 instructions: 102000003 cycles: 53119583 heartbeat IPC: 2.12093 cumulative IPC: 1.87 (Simulation time: 3 hr 36 min 16 sec) 
Heartbeat CPU 0 instructions: 103000003 cycles: 53654028 heartbeat IPC: 1.8711 cumulative IPC: 1.87001 (Simulation time: 3 hr 38 min 16 sec) 
Heartbeat CPU 0 instructions: 104000000 cycles: 54211930 heartbeat IPC: 1.79242 cumulative IPC: 1.86915 (Simulation time: 3 hr 40 min 7 sec) 
Heartbeat CPU 0 instructions: 105000001 cycles: 54639006 heartbeat IPC: 2.34151 cumulative IPC: 1.87313 (Simulation time: 3 hr 41 min 55 sec) 
Heartbeat CPU 0 instructions: 106000002 cycles: 55086202 heartbeat IPC: 2.23616 cumulative IPC: 1.8763 (Simulation time: 3 hr 43 min 40 sec) 
Heartbeat CPU 0 instructions: 107000001 cycles: 55539472 heartbeat IPC: 2.20619 cumulative IPC: 1.8792 (Simulation time: 3 hr 45 min 16 sec) 
Heartbeat CPU 0 instructions: 108000000 cycles: 55958289 heartbeat IPC: 2.38768 cumulative IPC: 1.88329 (Simulation time: 3 hr 46 min 54 sec) 
Heartbeat CPU 0 instructions: 109000000 cycles: 56435981 heartbeat IPC: 2.0934 cumulative IPC: 1.8852 (Simulation time: 3 hr 48 min 29 sec) 
Heartbeat CPU 0 instructions: 110000000 cycles: 56854692 heartbeat IPC: 2.38828 cumulative IPC: 1.88918 (Simulation time: 3 hr 50 min 1 sec) 
Finished CPU 0 instructions: 100000000 cycles: 52933043 cummulative IPC: 1.88918 (Simulation time: 3 hr 50 min 1 sec) 

ChampSim completed all CPUs

Region of Interest Statistics

CPU 0 cummulative IPC: 1.88918 instructions: 100000000 cycles: 52933043
LLC TOTAL     ACCESS:     865125  HIT:     418297  MISS:     446828
LLC LOAD      ACCESS:     110526  HIT:      91997  MISS:      18529
LLC RFO       ACCESS:        417  HIT:        415  MISS:          2
LLC PREFETCH  ACCESS:     655871  HIT:     250390  MISS:     405481
LLC WRITEBACK ACCESS:      98311  HIT:      75495  MISS:      22816
