
*** ChampSim Multicore Out-of-Order Simulator ***

Warmup Instructions: 10000000
Simulation Instructions: 100000000
Configuration: 2
Number of CPUs: 1
LLC sets: 2048
LLC ways: 16
Off-chip DRAM Channels: 1 Width: 64-bit Data Rate: 1600 MT/s

CPU 0 runs /datasets/cs240c-wi22-a00-public/data/Assignment2-gz/GemsFDTD_712B.trace.gz
CPU 0 L1D next line prefetcher
CPU 0 L2C IP-based stride prefetcher
config 2, num_core 1, llc_sets 2048
Heartbeat CPU 0 instructions: 1000003 cycles: 634341 heartbeat IPC: 1.57644 cumulative IPC: 1.57644 (Simulation time: 0 hr 1 min 47 sec) 
Heartbeat CPU 0 instructions: 2000000 cycles: 1268324 heartbeat IPC: 1.57732 cumulative IPC: 1.57688 (Simulation time: 0 hr 3 min 48 sec) 
Heartbeat CPU 0 instructions: 3000000 cycles: 1902428 heartbeat IPC: 1.57703 cumulative IPC: 1.57693 (Simulation time: 0 hr 6 min 7 sec) 
Heartbeat CPU 0 instructions: 4000000 cycles: 2536238 heartbeat IPC: 1.57776 cumulative IPC: 1.57714 (Simulation time: 0 hr 8 min 18 sec) 
Heartbeat CPU 0 instructions: 5000003 cycles: 3170510 heartbeat IPC: 1.57662 cumulative IPC: 1.57703 (Simulation time: 0 hr 10 min 34 sec) 
Heartbeat CPU 0 instructions: 6000002 cycles: 3804518 heartbeat IPC: 1.57727 cumulative IPC: 1.57707 (Simulation time: 0 hr 12 min 41 sec) 
Heartbeat CPU 0 instructions: 7000001 cycles: 4438785 heartbeat IPC: 1.57662 cumulative IPC: 1.57701 (Simulation time: 0 hr 14 min 55 sec) 
Heartbeat CPU 0 instructions: 8000000 cycles: 5072736 heartbeat IPC: 1.57741 cumulative IPC: 1.57706 (Simulation time: 0 hr 17 min 21 sec) 
Heartbeat CPU 0 instructions: 9000001 cycles: 5706993 heartbeat IPC: 1.57665 cumulative IPC: 1.57701 (Simulation time: 0 hr 19 min 34 sec) 
Heartbeat CPU 0 instructions: 10000002 cycles: 6340902 heartbeat IPC: 1.57752 cumulative IPC: 1.57706 (Simulation time: 0 hr 21 min 34 sec) 

Warmup complete CPU 0 instructions: 10000002 cycles: 6340902 (Simulation time: 0 hr 21 min 34 sec) 

Heartbeat CPU 0 instructions: 11000001 cycles: 7984435 heartbeat IPC: 0.608445 cumulative IPC: 0.608445 (Simulation time: 0 hr 24 min 16 sec) 
Heartbeat CPU 0 instructions: 12000000 cycles: 9624659 heartbeat IPC: 0.609672 cumulative IPC: 0.609058 (Simulation time: 0 hr 26 min 46 sec) 
Heartbeat CPU 0 instructions: 13000000 cycles: 11260622 heartbeat IPC: 0.611261 cumulative IPC: 0.60979 (Simulation time: 0 hr 29 min 24 sec) 
Heartbeat CPU 0 instructions: 14000001 cycles: 12877949 heartbeat IPC: 0.618305 cumulative IPC: 0.611897 (Simulation time: 0 hr 32 min 4 sec) 
Heartbeat CPU 0 instructions: 15000001 cycles: 14489985 heartbeat IPC: 0.620334 cumulative IPC: 0.613566 (Simulation time: 0 hr 34 min 35 sec) 
Heartbeat CPU 0 instructions: 16000000 cycles: 16136458 heartbeat IPC: 0.607358 cumulative IPC: 0.612522 (Simulation time: 0 hr 37 min 18 sec) 
Heartbeat CPU 0 instructions: 17000001 cycles: 17765785 heartbeat IPC: 0.613751 cumulative IPC: 0.612698 (Simulation time: 0 hr 40 min 7 sec) 
Heartbeat CPU 0 instructions: 18000003 cycles: 19420444 heartbeat IPC: 0.604355 cumulative IPC: 0.611642 (Simulation time: 0 hr 43 min 3 sec) 
Heartbeat CPU 0 instructions: 19000003 cycles: 21044326 heartbeat IPC: 0.615808 cumulative IPC: 0.612102 (Simulation time: 0 hr 45 min 44 sec) 
Heartbeat CPU 0 instructions: 20000000 cycles: 22661730 heartbeat IPC: 0.618273 cumulative IPC: 0.612714 (Simulation time: 0 hr 48 min 23 sec) 
Heartbeat CPU 0 instructions: 21000002 cycles: 24295850 heartbeat IPC: 0.611951 cumulative IPC: 0.612644 (Simulation time: 0 hr 50 min 53 sec) 
Heartbeat CPU 0 instructions: 22000001 cycles: 25939807 heartbeat IPC: 0.608288 cumulative IPC: 0.612279 (Simulation time: 0 hr 53 min 35 sec) 
Heartbeat CPU 0 instructions: 23000002 cycles: 27564150 heartbeat IPC: 0.615634 cumulative IPC: 0.612536 (Simulation time: 0 hr 56 min 7 sec) 
Heartbeat CPU 0 instructions: 24000000 cycles: 29230451 heartbeat IPC: 0.60013 cumulative IPC: 0.611633 (Simulation time: 0 hr 58 min 23 sec) 
Heartbeat CPU 0 instructions: 25000000 cycles: 30868793 heartbeat IPC: 0.610373 cumulative IPC: 0.611549 (Simulation time: 1 hr 0 min 51 sec) 
Heartbeat CPU 0 instructions: 26000002 cycles: 32494405 heartbeat IPC: 0.615154 cumulative IPC: 0.611773 (Simulation time: 1 hr 3 min 7 sec) 
Heartbeat CPU 0 instructions: 27000002 cycles: 34141915 heartbeat IPC: 0.606977 cumulative IPC: 0.611489 (Simulation time: 1 hr 5 min 24 sec) 
Heartbeat CPU 0 instructions: 28000000 cycles: 35769170 heartbeat IPC: 0.614531 cumulative IPC: 0.611657 (Simulation time: 1 hr 7 min 43 sec) 
Heartbeat CPU 0 instructions: 29000002 cycles: 37397159 heartbeat IPC: 0.614256 cumulative IPC: 0.611793 (Simulation time: 1 hr 10 min 19 sec) 
Heartbeat CPU 0 instructions: 30000003 cycles: 39021477 heartbeat IPC: 0.615644 cumulative IPC: 0.611984 (Simulation time: 1 hr 13 min 1 sec) 
Heartbeat CPU 0 instructions: 31000001 cycles: 40657596 heartbeat IPC: 0.611201 cumulative IPC: 0.611947 (Simulation time: 1 hr 15 min 49 sec) 
Heartbeat CPU 0 instructions: 32000000 cycles: 42295749 heartbeat IPC: 0.610443 cumulative IPC: 0.611879 (Simulation time: 1 hr 18 min 29 sec) 
Heartbeat CPU 0 instructions: 33000003 cycles: 43929746 heartbeat IPC: 0.611998 cumulative IPC: 0.611884 (Simulation time: 1 hr 21 min 14 sec) 
Heartbeat CPU 0 instructions: 34000003 cycles: 45535193 heartbeat IPC: 0.62288 cumulative IPC: 0.612334 (Simulation time: 1 hr 23 min 39 sec) 
Heartbeat CPU 0 instructions: 35000000 cycles: 47162580 heartbeat IPC: 0.61448 cumulative IPC: 0.61242 (Simulation time: 1 hr 26 min 17 sec) 
Heartbeat CPU 0 instructions: 36000000 cycles: 48800116 heartbeat IPC: 0.610674 cumulative IPC: 0.612352 (Simulation time: 1 hr 28 min 56 sec) 
Heartbeat CPU 0 instructions: 37000001 cycles: 50401016 heartbeat IPC: 0.624649 cumulative IPC: 0.612799 (Simulation time: 1 hr 31 min 24 sec) 
Heartbeat CPU 0 instructions: 38000003 cycles: 52021325 heartbeat IPC: 0.617167 cumulative IPC: 0.612954 (Simulation time: 1 hr 33 min 49 sec) 
Heartbeat CPU 0 instructions: 39000000 cycles: 53672234 heartbeat IPC: 0.605725 cumulative IPC: 0.612702 (Simulation time: 1 hr 36 min 29 sec) 
Heartbeat CPU 0 instructions: 40000000 cycles: 55270456 heartbeat IPC: 0.625695 cumulative IPC: 0.613126 (Simulation time: 1 hr 38 min 58 sec) 
Heartbeat CPU 0 instructions: 41000003 cycles: 56887597 heartbeat IPC: 0.618377 cumulative IPC: 0.613294 (Simulation time: 1 hr 41 min 20 sec) 
Heartbeat CPU 0 instructions: 42000000 cycles: 58531639 heartbeat IPC: 0.608255 cumulative IPC: 0.613136 (Simulation time: 1 hr 43 min 48 sec) 
Heartbeat CPU 0 instructions: 43000001 cycles: 60166390 heartbeat IPC: 0.611715 cumulative IPC: 0.613092 (Simulation time: 1 hr 46 min 18 sec) 
Heartbeat CPU 0 instructions: 44000000 cycles: 61787869 heartbeat IPC: 0.61672 cumulative IPC: 0.613199 (Simulation time: 1 hr 48 min 44 sec) 
Heartbeat CPU 0 instructions: 45000002 cycles: 63406026 heartbeat IPC: 0.617988 cumulative IPC: 0.613334 (Simulation time: 1 hr 51 min 13 sec) 
Heartbeat CPU 0 instructions: 46000002 cycles: 65009417 heartbeat IPC: 0.623678 cumulative IPC: 0.613617 (Simulation time: 1 hr 53 min 3 sec) 
Heartbeat CPU 0 instructions: 47000001 cycles: 66649023 heartbeat IPC: 0.609902 cumulative IPC: 0.613516 (Simulation time: 1 hr 54 min 55 sec) 
Heartbeat CPU 0 instructions: 48000000 cycles: 68283873 heartbeat IPC: 0.611676 cumulative IPC: 0.613467 (Simulation time: 1 hr 56 min 50 sec) 
Heartbeat CPU 0 instructions: 49000000 cycles: 69890949 heartbeat IPC: 0.622248 cumulative IPC: 0.61369 (Simulation time: 1 hr 58 min 44 sec) 
Heartbeat CPU 0 instructions: 50000001 cycles: 71529765 heartbeat IPC: 0.610197 cumulative IPC: 0.613602 (Simulation time: 2 hr 0 min 40 sec) 
Heartbeat CPU 0 instructions: 51000002 cycles: 73173995 heartbeat IPC: 0.608188 cumulative IPC: 0.613469 (Simulation time: 2 hr 2 min 37 sec) 
Heartbeat CPU 0 instructions: 52000000 cycles: 74802882 heartbeat IPC: 0.613915 cumulative IPC: 0.613479 (Simulation time: 2 hr 4 min 31 sec) 
Heartbeat CPU 0 instructions: 53000000 cycles: 76464490 heartbeat IPC: 0.601827 cumulative IPC: 0.613203 (Simulation time: 2 hr 6 min 20 sec) 
Heartbeat CPU 0 instructions: 54000000 cycles: 78075790 heartbeat IPC: 0.620617 cumulative IPC: 0.61337 (Simulation time: 2 hr 8 min 12 sec) 
Heartbeat CPU 0 instructions: 55000000 cycles: 79677490 heartbeat IPC: 0.624337 cumulative IPC: 0.613609 (Simulation time: 2 hr 10 min 7 sec) 
Heartbeat CPU 0 instructions: 56000000 cycles: 81311353 heartbeat IPC: 0.612046 cumulative IPC: 0.613575 (Simulation time: 2 hr 12 min 1 sec) 
Heartbeat CPU 0 instructions: 57000000 cycles: 82984256 heartbeat IPC: 0.597763 cumulative IPC: 0.61323 (Simulation time: 2 hr 13 min 59 sec) 
Heartbeat CPU 0 instructions: 58000001 cycles: 84618282 heartbeat IPC: 0.611986 cumulative IPC: 0.613204 (Simulation time: 2 hr 15 min 51 sec) 
Heartbeat CPU 0 instructions: 59000001 cycles: 86258908 heartbeat IPC: 0.609523 cumulative IPC: 0.613128 (Simulation time: 2 hr 17 min 46 sec) 
Heartbeat CPU 0 instructions: 60000000 cycles: 87905197 heartbeat IPC: 0.607426 cumulative IPC: 0.613013 (Simulation time: 2 hr 19 min 40 sec) 
Heartbeat CPU 0 instructions: 61000001 cycles: 89513566 heartbeat IPC: 0.621749 cumulative IPC: 0.613182 (Simulation time: 2 hr 21 min 46 sec) 
Heartbeat CPU 0 instructions: 62000000 cycles: 91122273 heartbeat IPC: 0.621617 cumulative IPC: 0.613342 (Simulation time: 2 hr 23 min 37 sec) 
Heartbeat CPU 0 instructions: 63000002 cycles: 92746976 heartbeat IPC: 0.615498 cumulative IPC: 0.613383 (Simulation time: 2 hr 25 min 24 sec) 
Heartbeat CPU 0 instructions: 64000000 cycles: 94387423 heartbeat IPC: 0.609589 cumulative IPC: 0.613312 (Simulation time: 2 hr 27 min 4 sec) 
Heartbeat CPU 0 instructions: 65000003 cycles: 96033790 heartbeat IPC: 0.6074 cumulative IPC: 0.613204 (Simulation time: 2 hr 28 min 43 sec) 
Heartbeat CPU 0 instructions: 66000000 cycles: 97645988 heartbeat IPC: 0.620269 cumulative IPC: 0.613328 (Simulation time: 2 hr 30 min 11 sec) 
Heartbeat CPU 0 instructions: 67000000 cycles: 99264192 heartbeat IPC: 0.617969 cumulative IPC: 0.613409 (Simulation time: 2 hr 31 min 40 sec) 
Heartbeat CPU 0 instructions: 68000000 cycles: 100876481 heartbeat IPC: 0.620236 cumulative IPC: 0.613526 (Simulation time: 2 hr 33 min 7 sec) 
Heartbeat CPU 0 instructions: 69000001 cycles: 102482662 heartbeat IPC: 0.622595 cumulative IPC: 0.613677 (Simulation time: 2 hr 34 min 31 sec) 
Heartbeat CPU 0 instructions: 70000002 cycles: 104130389 heartbeat IPC: 0.606897 cumulative IPC: 0.613563 (Simulation time: 2 hr 35 min 51 sec) 
Heartbeat CPU 0 instructions: 71000002 cycles: 105801237 heartbeat IPC: 0.598498 cumulative IPC: 0.61331 (Simulation time: 2 hr 37 min 14 sec) 
Heartbeat CPU 0 instructions: 72000000 cycles: 107655009 heartbeat IPC: 0.53944 cumulative IPC: 0.611958 (Simulation time: 2 hr 38 min 37 sec) 
Heartbeat CPU 0 instructions: 73000000 cycles: 109490750 heartbeat IPC: 0.544739 cumulative IPC: 0.610762 (Simulation time: 2 hr 39 min 59 sec) 
Heartbeat CPU 0 instructions: 74000001 cycles: 111345974 heartbeat IPC: 0.539019 cumulative IPC: 0.609494 (Simulation time: 2 hr 41 min 17 sec) 
Heartbeat CPU 0 instructions: 75000003 cycles: 113182286 heartbeat IPC: 0.544571 cumulative IPC: 0.608379 (Simulation time: 2 hr 42 min 30 sec) 
Heartbeat CPU 0 instructions: 76000000 cycles: 115015815 heartbeat IPC: 0.545395 cumulative IPC: 0.607316 (Simulation time: 2 hr 43 min 41 sec) 
Heartbeat CPU 0 instructions: 77000000 cycles: 116870766 heartbeat IPC: 0.539098 cumulative IPC: 0.606171 (Simulation time: 2 hr 44 min 44 sec) 
Heartbeat CPU 0 instructions: 78000001 cycles: 118703923 heartbeat IPC: 0.545508 cumulative IPC: 0.605181 (Simulation time: 2 hr 45 min 48 sec) 
Heartbeat CPU 0 instructions: 79000003 cycles: 120550177 heartbeat IPC: 0.541638 cumulative IPC: 0.604154 (Simulation time: 2 hr 46 min 46 sec) 
Heartbeat CPU 0 instructions: 80000000 cycles: 122389889 heartbeat IPC: 0.543562 cumulative IPC: 0.603194 (Simulation time: 2 hr 47 min 47 sec) 
Heartbeat CPU 0 instructions: 81000000 cycles: 124223948 heartbeat IPC: 0.545239 cumulative IPC: 0.602292 (Simulation time: 2 hr 48 min 40 sec) 
Heartbeat CPU 0 instructions: 82000000 cycles: 126078535 heartbeat IPC: 0.539204 cumulative IPC: 0.601315 (Simulation time: 2 hr 49 min 29 sec) 
Heartbeat CPU 0 instructions: 83000001 cycles: 127908703 heartbeat IPC: 0.546398 cumulative IPC: 0.600488 (Simulation time: 2 hr 50 min 13 sec) 
Heartbeat CPU 0 instructions: 84000000 cycles: 129761911 heartbeat IPC: 0.539604 cumulative IPC: 0.599574 (Simulation time: 2 hr 50 min 55 sec) 
Heartbeat CPU 0 instructions: 85000000 cycles: 131600169 heartbeat IPC: 0.543993 cumulative IPC: 0.598758 (Simulation time: 2 hr 51 min 38 sec) 
Heartbeat CPU 0 instructions: 86000000 cycles: 133433002 heartbeat IPC: 0.545603 cumulative IPC: 0.597992 (Simulation time: 2 hr 52 min 24 sec) 
Heartbeat CPU 0 instructions: 87000001 cycles: 135280654 heartbeat IPC: 0.541228 cumulative IPC: 0.597178 (Simulation time: 2 hr 53 min 5 sec) 
Heartbeat CPU 0 instructions: 88000000 cycles: 137120844 heartbeat IPC: 0.543422 cumulative IPC: 0.596422 (Simulation time: 2 hr 53 min 41 sec) 
Heartbeat CPU 0 instructions: 89000003 cycles: 138964490 heartbeat IPC: 0.542405 cumulative IPC: 0.595671 (Simulation time: 2 hr 54 min 19 sec) 
Heartbeat CPU 0 instructions: 90000000 cycles: 140806661 heartbeat IPC: 0.542836 cumulative IPC: 0.594947 (Simulation time: 2 hr 54 min 51 sec) 
Heartbeat CPU 0 instructions: 91000001 cycles: 142642934 heartbeat IPC: 0.544582 cumulative IPC: 0.594268 (Simulation time: 2 hr 55 min 25 sec) 
Heartbeat CPU 0 instructions: 92000000 cycles: 144484345 heartbeat IPC: 0.543061 cumulative IPC: 0.593586 (Simulation time: 2 hr 55 min 54 sec) 
Heartbeat CPU 0 instructions: 93000003 cycles: 146318189 heartbeat IPC: 0.545304 cumulative IPC: 0.592953 (Simulation time: 2 hr 56 min 21 sec) 
Heartbeat CPU 0 instructions: 94000002 cycles: 148149829 heartbeat IPC: 0.545958 cumulative IPC: 0.592346 (Simulation time: 2 hr 56 min 45 sec) 
Heartbeat CPU 0 instructions: 95000001 cycles: 149993629 heartbeat IPC: 0.542358 cumulative IPC: 0.591705 (Simulation time: 2 hr 57 min 7 sec) 
Heartbeat CPU 0 instructions: 96000000 cycles: 151828854 heartbeat IPC: 0.544892 cumulative IPC: 0.591114 (Simulation time: 2 hr 57 min 27 sec) 
Heartbeat CPU 0 instructions: 97000003 cycles: 153666435 heartbeat IPC: 0.544195 cumulative IPC: 0.590529 (Simulation time: 2 hr 57 min 46 sec) 
Heartbeat CPU 0 instructions: 98000000 cycles: 155507250 heartbeat IPC: 0.543236 cumulative IPC: 0.589945 (Simulation time: 2 hr 58 min 3 sec) 
Heartbeat CPU 0 instructions: 99000001 cycles: 157347779 heartbeat IPC: 0.543323 cumulative IPC: 0.589377 (Simulation time: 2 hr 58 min 18 sec) 
Heartbeat CPU 0 instructions: 100000000 cycles: 159196119 heartbeat IPC: 0.541025 cumulative IPC: 0.588792 (Simulation time: 2 hr 58 min 31 sec) 
Heartbeat CPU 0 instructions: 101000001 cycles: 161028872 heartbeat IPC: 0.545628 cumulative IPC: 0.588281 (Simulation time: 2 hr 58 min 44 sec) 
Heartbeat CPU 0 instructions: 102000002 cycles: 162868582 heartbeat IPC: 0.543564 cumulative IPC: 0.587755 (Simulation time: 2 hr 58 min 55 sec) 
Heartbeat CPU 0 instructions: 103000000 cycles: 164702194 heartbeat IPC: 0.545371 cumulative IPC: 0.587265 (Simulation time: 2 hr 59 min 6 sec) 
Heartbeat CPU 0 instructions: 104000000 cycles: 166545105 heartbeat IPC: 0.54262 cumulative IPC: 0.586751 (Simulation time: 2 hr 59 min 16 sec) 
Heartbeat CPU 0 instructions: 105000000 cycles: 168369566 heartbeat IPC: 0.548107 cumulative IPC: 0.586316 (Simulation time: 2 hr 59 min 25 sec) 
Heartbeat CPU 0 instructions: 106000002 cycles: 170107021 heartbeat IPC: 0.575556 cumulative IPC: 0.586202 (Simulation time: 2 hr 59 min 35 sec) 
Heartbeat CPU 0 instructions: 107000000 cycles: 171842530 heartbeat IPC: 0.576199 cumulative IPC: 0.586097 (Simulation time: 2 hr 59 min 44 sec) 
Heartbeat CPU 0 instructions: 108000000 cycles: 173572737 heartbeat IPC: 0.577965 cumulative IPC: 0.586013 (Simulation time: 2 hr 59 min 54 sec) 
Heartbeat CPU 0 instructions: 109000003 cycles: 175323762 heartbeat IPC: 0.571096 cumulative IPC: 0.585858 (Simulation time: 3 hr 0 min 3 sec) 
Heartbeat CPU 0 instructions: 110000000 cycles: 177063728 heartbeat IPC: 0.574722 cumulative IPC: 0.585745 (Simulation time: 3 hr 0 min 12 sec) 
Finished CPU 0 instructions: 100000000 cycles: 170722837 cummulative IPC: 0.585745 (Simulation time: 3 hr 0 min 12 sec) 

ChampSim completed all CPUs

Region of Interest Statistics

CPU 0 cummulative IPC: 0.585745 instructions: 100000000 cycles: 170722837
LLC TOTAL     ACCESS:    5145119  HIT:      21381  MISS:    5123738
LLC LOAD      ACCESS:     521779  HIT:      10267  MISS:     511512
LLC RFO       ACCESS:         17  HIT:          0  MISS:         17
LLC PREFETCH  ACCESS:    3246015  HIT:       4626  MISS:    3241389
LLC WRITEBACK ACCESS:    1377308  HIT:       6488  MISS:    1370820
