
*** ChampSim Multicore Out-of-Order Simulator ***

Warmup Instructions: 10000000
Simulation Instructions: 100000000
Configuration: 2
Number of CPUs: 1
LLC sets: 2048
LLC ways: 16
Off-chip DRAM Channels: 1 Width: 64-bit Data Rate: 1600 MT/s

CPU 0 runs /datasets/cs240c-wi22-a00-public/data/Assignment2-gz/zeusmp_100B.trace.gz
CPU 0 L1D next line prefetcher
CPU 0 L2C IP-based stride prefetcher
config 2, num_core 1, llc_sets 2048
Heartbeat CPU 0 instructions: 1000002 cycles: 462680 heartbeat IPC: 2.16133 cumulative IPC: 2.16133 (Simulation time: 0 hr 1 min 21 sec) 
Heartbeat CPU 0 instructions: 2000001 cycles: 925474 heartbeat IPC: 2.16079 cumulative IPC: 2.16106 (Simulation time: 0 hr 2 min 41 sec) 
Heartbeat CPU 0 instructions: 3000003 cycles: 1388514 heartbeat IPC: 2.15964 cumulative IPC: 2.16059 (Simulation time: 0 hr 4 min 0 sec) 
Heartbeat CPU 0 instructions: 4000000 cycles: 1851241 heartbeat IPC: 2.16109 cumulative IPC: 2.16071 (Simulation time: 0 hr 5 min 20 sec) 
Heartbeat CPU 0 instructions: 5000003 cycles: 2314181 heartbeat IPC: 2.16011 cumulative IPC: 2.16059 (Simulation time: 0 hr 6 min 39 sec) 
Heartbeat CPU 0 instructions: 6000001 cycles: 2777032 heartbeat IPC: 2.16052 cumulative IPC: 2.16058 (Simulation time: 0 hr 8 min 3 sec) 
Heartbeat CPU 0 instructions: 7000001 cycles: 3239711 heartbeat IPC: 2.16133 cumulative IPC: 2.16069 (Simulation time: 0 hr 9 min 22 sec) 
Heartbeat CPU 0 instructions: 8000000 cycles: 3702589 heartbeat IPC: 2.16039 cumulative IPC: 2.16065 (Simulation time: 0 hr 10 min 40 sec) 
Heartbeat CPU 0 instructions: 9000003 cycles: 4165353 heartbeat IPC: 2.16094 cumulative IPC: 2.16068 (Simulation time: 0 hr 11 min 54 sec) 
Heartbeat CPU 0 instructions: 10000001 cycles: 4628700 heartbeat IPC: 2.15821 cumulative IPC: 2.16043 (Simulation time: 0 hr 13 min 11 sec) 

Warmup complete CPU 0 instructions: 10000001 cycles: 4628700 (Simulation time: 0 hr 13 min 11 sec) 

Heartbeat CPU 0 instructions: 11000000 cycles: 5304650 heartbeat IPC: 1.4794 cumulative IPC: 1.4794 (Simulation time: 0 hr 14 min 33 sec) 
Heartbeat CPU 0 instructions: 12000000 cycles: 5989022 heartbeat IPC: 1.46119 cumulative IPC: 1.47024 (Simulation time: 0 hr 15 min 58 sec) 
Heartbeat CPU 0 instructions: 13000001 cycles: 6684907 heartbeat IPC: 1.43702 cumulative IPC: 1.459 (Simulation time: 0 hr 17 min 24 sec) 
Heartbeat CPU 0 instructions: 14000003 cycles: 7367253 heartbeat IPC: 1.46554 cumulative IPC: 1.46063 (Simulation time: 0 hr 18 min 45 sec) 
Heartbeat CPU 0 instructions: 15000002 cycles: 8040192 heartbeat IPC: 1.48602 cumulative IPC: 1.46563 (Simulation time: 0 hr 20 min 7 sec) 
Heartbeat CPU 0 instructions: 16000000 cycles: 8713181 heartbeat IPC: 1.48591 cumulative IPC: 1.46897 (Simulation time: 0 hr 21 min 30 sec) 
Heartbeat CPU 0 instructions: 17000003 cycles: 9511347 heartbeat IPC: 1.25288 cumulative IPC: 1.43365 (Simulation time: 0 hr 22 min 52 sec) 
Heartbeat CPU 0 instructions: 18000000 cycles: 10220202 heartbeat IPC: 1.41072 cumulative IPC: 1.43074 (Simulation time: 0 hr 24 min 15 sec) 
Heartbeat CPU 0 instructions: 19000002 cycles: 10935148 heartbeat IPC: 1.39871 cumulative IPC: 1.42711 (Simulation time: 0 hr 25 min 36 sec) 
Heartbeat CPU 0 instructions: 20000000 cycles: 11633808 heartbeat IPC: 1.43131 cumulative IPC: 1.42753 (Simulation time: 0 hr 27 min 0 sec) 
Heartbeat CPU 0 instructions: 21000001 cycles: 12342172 heartbeat IPC: 1.41171 cumulative IPC: 1.42608 (Simulation time: 0 hr 28 min 21 sec) 
Heartbeat CPU 0 instructions: 22000001 cycles: 13037933 heartbeat IPC: 1.43728 cumulative IPC: 1.427 (Simulation time: 0 hr 29 min 43 sec) 
Heartbeat CPU 0 instructions: 23000002 cycles: 13759513 heartbeat IPC: 1.38585 cumulative IPC: 1.42375 (Simulation time: 0 hr 31 min 6 sec) 
Heartbeat CPU 0 instructions: 24000000 cycles: 14459430 heartbeat IPC: 1.42874 cumulative IPC: 1.42411 (Simulation time: 0 hr 32 min 28 sec) 
Heartbeat CPU 0 instructions: 25000001 cycles: 15172356 heartbeat IPC: 1.40267 cumulative IPC: 1.42266 (Simulation time: 0 hr 33 min 50 sec) 
Heartbeat CPU 0 instructions: 26000001 cycles: 15869864 heartbeat IPC: 1.43368 cumulative IPC: 1.42334 (Simulation time: 0 hr 35 min 14 sec) 
Heartbeat CPU 0 instructions: 27000002 cycles: 16586151 heartbeat IPC: 1.39609 cumulative IPC: 1.42171 (Simulation time: 0 hr 36 min 41 sec) 
Heartbeat CPU 0 instructions: 28000000 cycles: 17287014 heartbeat IPC: 1.42681 cumulative IPC: 1.42199 (Simulation time: 0 hr 38 min 3 sec) 
Heartbeat CPU 0 instructions: 29000000 cycles: 17983888 heartbeat IPC: 1.43498 cumulative IPC: 1.42267 (Simulation time: 0 hr 39 min 26 sec) 
Heartbeat CPU 0 instructions: 30000003 cycles: 18696732 heartbeat IPC: 1.40284 cumulative IPC: 1.42166 (Simulation time: 0 hr 40 min 48 sec) 
Heartbeat CPU 0 instructions: 31000000 cycles: 19390656 heartbeat IPC: 1.44108 cumulative IPC: 1.42258 (Simulation time: 0 hr 42 min 9 sec) 
Heartbeat CPU 0 instructions: 32000000 cycles: 20104745 heartbeat IPC: 1.40039 cumulative IPC: 1.42155 (Simulation time: 0 hr 43 min 33 sec) 
Heartbeat CPU 0 instructions: 33000002 cycles: 20801266 heartbeat IPC: 1.43571 cumulative IPC: 1.42216 (Simulation time: 0 hr 44 min 56 sec) 
Heartbeat CPU 0 instructions: 34000002 cycles: 21510081 heartbeat IPC: 1.41081 cumulative IPC: 1.42168 (Simulation time: 0 hr 46 min 22 sec) 
Heartbeat CPU 0 instructions: 35000003 cycles: 22207412 heartbeat IPC: 1.43404 cumulative IPC: 1.42217 (Simulation time: 0 hr 47 min 42 sec) 
Heartbeat CPU 0 instructions: 36000000 cycles: 22920322 heartbeat IPC: 1.4027 cumulative IPC: 1.42142 (Simulation time: 0 hr 49 min 7 sec) 
Heartbeat CPU 0 instructions: 37000001 cycles: 23619090 heartbeat IPC: 1.43109 cumulative IPC: 1.42177 (Simulation time: 0 hr 50 min 28 sec) 
Heartbeat CPU 0 instructions: 38000003 cycles: 24332966 heartbeat IPC: 1.40081 cumulative IPC: 1.42101 (Simulation time: 0 hr 51 min 46 sec) 
Heartbeat CPU 0 instructions: 39000001 cycles: 25034208 heartbeat IPC: 1.42604 cumulative IPC: 1.42118 (Simulation time: 0 hr 53 min 9 sec) 
Heartbeat CPU 0 instructions: 40000000 cycles: 25749778 heartbeat IPC: 1.39749 cumulative IPC: 1.42038 (Simulation time: 0 hr 54 min 31 sec) 
Heartbeat CPU 0 instructions: 41000002 cycles: 26451347 heartbeat IPC: 1.42538 cumulative IPC: 1.42054 (Simulation time: 0 hr 55 min 49 sec) 
Heartbeat CPU 0 instructions: 42000001 cycles: 27150485 heartbeat IPC: 1.43033 cumulative IPC: 1.42085 (Simulation time: 0 hr 57 min 11 sec) 
Heartbeat CPU 0 instructions: 43000003 cycles: 27868231 heartbeat IPC: 1.39325 cumulative IPC: 1.41999 (Simulation time: 0 hr 58 min 31 sec) 
Heartbeat CPU 0 instructions: 44000000 cycles: 28565625 heartbeat IPC: 1.43391 cumulative IPC: 1.4204 (Simulation time: 0 hr 59 min 51 sec) 
Heartbeat CPU 0 instructions: 45000001 cycles: 29277133 heartbeat IPC: 1.40547 cumulative IPC: 1.41997 (Simulation time: 1 hr 1 min 13 sec) 
Heartbeat CPU 0 instructions: 46000002 cycles: 29979473 heartbeat IPC: 1.42381 cumulative IPC: 1.42008 (Simulation time: 1 hr 2 min 39 sec) 
Heartbeat CPU 0 instructions: 47000003 cycles: 30691790 heartbeat IPC: 1.40387 cumulative IPC: 1.41963 (Simulation time: 1 hr 4 min 1 sec) 
Heartbeat CPU 0 instructions: 48000000 cycles: 31389761 heartbeat IPC: 1.43272 cumulative IPC: 1.41997 (Simulation time: 1 hr 5 min 21 sec) 
Heartbeat CPU 0 instructions: 49000001 cycles: 32102141 heartbeat IPC: 1.40375 cumulative IPC: 1.41955 (Simulation time: 1 hr 6 min 44 sec) 
Heartbeat CPU 0 instructions: 50000001 cycles: 32804179 heartbeat IPC: 1.42442 cumulative IPC: 1.41967 (Simulation time: 1 hr 8 min 13 sec) 
Heartbeat CPU 0 instructions: 51000002 cycles: 33516962 heartbeat IPC: 1.40295 cumulative IPC: 1.41926 (Simulation time: 1 hr 9 min 46 sec) 
Heartbeat CPU 0 instructions: 52000000 cycles: 34213369 heartbeat IPC: 1.43594 cumulative IPC: 1.41965 (Simulation time: 1 hr 11 min 12 sec) 
Heartbeat CPU 0 instructions: 53000001 cycles: 34926103 heartbeat IPC: 1.40305 cumulative IPC: 1.41926 (Simulation time: 1 hr 12 min 41 sec) 
Heartbeat CPU 0 instructions: 54000003 cycles: 35626911 heartbeat IPC: 1.42693 cumulative IPC: 1.41944 (Simulation time: 1 hr 14 min 8 sec) 
Heartbeat CPU 0 instructions: 55000003 cycles: 36331365 heartbeat IPC: 1.41954 cumulative IPC: 1.41944 (Simulation time: 1 hr 15 min 31 sec) 
Heartbeat CPU 0 instructions: 56000000 cycles: 37039433 heartbeat IPC: 1.41229 cumulative IPC: 1.41928 (Simulation time: 1 hr 16 min 55 sec) 
Heartbeat CPU 0 instructions: 57000003 cycles: 37738167 heartbeat IPC: 1.43116 cumulative IPC: 1.41953 (Simulation time: 1 hr 18 min 21 sec) 
Heartbeat CPU 0 instructions: 58000003 cycles: 38448775 heartbeat IPC: 1.40725 cumulative IPC: 1.41928 (Simulation time: 1 hr 19 min 51 sec) 
Heartbeat CPU 0 instructions: 59000000 cycles: 39148973 heartbeat IPC: 1.42816 cumulative IPC: 1.41946 (Simulation time: 1 hr 21 min 19 sec) 
Heartbeat CPU 0 instructions: 60000000 cycles: 39865119 heartbeat IPC: 1.39636 cumulative IPC: 1.41899 (Simulation time: 1 hr 22 min 53 sec) 
Heartbeat CPU 0 instructions: 61000000 cycles: 40565373 heartbeat IPC: 1.42805 cumulative IPC: 1.41916 (Simulation time: 1 hr 24 min 23 sec) 
Heartbeat CPU 0 instructions: 62000001 cycles: 41280412 heartbeat IPC: 1.39853 cumulative IPC: 1.41876 (Simulation time: 1 hr 25 min 50 sec) 
Heartbeat CPU 0 instructions: 63000001 cycles: 41983324 heartbeat IPC: 1.42265 cumulative IPC: 1.41883 (Simulation time: 1 hr 27 min 20 sec) 
Heartbeat CPU 0 instructions: 64000000 cycles: 42698210 heartbeat IPC: 1.39882 cumulative IPC: 1.41846 (Simulation time: 1 hr 28 min 51 sec) 
Heartbeat CPU 0 instructions: 65000003 cycles: 43395954 heartbeat IPC: 1.43319 cumulative IPC: 1.41872 (Simulation time: 1 hr 30 min 19 sec) 
Heartbeat CPU 0 instructions: 66000003 cycles: 44108031 heartbeat IPC: 1.40434 cumulative IPC: 1.41846 (Simulation time: 1 hr 31 min 50 sec) 
Heartbeat CPU 0 instructions: 67000000 cycles: 44805428 heartbeat IPC: 1.4339 cumulative IPC: 1.41873 (Simulation time: 1 hr 33 min 23 sec) 
Heartbeat CPU 0 instructions: 68000000 cycles: 45514088 heartbeat IPC: 1.41111 cumulative IPC: 1.4186 (Simulation time: 1 hr 34 min 51 sec) 
Heartbeat CPU 0 instructions: 69000000 cycles: 46214584 heartbeat IPC: 1.42756 cumulative IPC: 1.41875 (Simulation time: 1 hr 36 min 21 sec) 
Heartbeat CPU 0 instructions: 70000003 cycles: 46911184 heartbeat IPC: 1.43555 cumulative IPC: 1.41903 (Simulation time: 1 hr 37 min 52 sec) 
Heartbeat CPU 0 instructions: 71000003 cycles: 47624693 heartbeat IPC: 1.40152 cumulative IPC: 1.41874 (Simulation time: 1 hr 39 min 23 sec) 
Heartbeat CPU 0 instructions: 72000000 cycles: 48321982 heartbeat IPC: 1.43412 cumulative IPC: 1.41898 (Simulation time: 1 hr 40 min 56 sec) 
Heartbeat CPU 0 instructions: 73000002 cycles: 49036041 heartbeat IPC: 1.40045 cumulative IPC: 1.41868 (Simulation time: 1 hr 42 min 30 sec) 
Heartbeat CPU 0 instructions: 74000003 cycles: 49734486 heartbeat IPC: 1.43175 cumulative IPC: 1.41889 (Simulation time: 1 hr 43 min 59 sec) 
Heartbeat CPU 0 instructions: 75000003 cycles: 50445201 heartbeat IPC: 1.40703 cumulative IPC: 1.4187 (Simulation time: 1 hr 45 min 27 sec) 
Heartbeat CPU 0 instructions: 76000000 cycles: 51144198 heartbeat IPC: 1.43062 cumulative IPC: 1.41888 (Simulation time: 1 hr 46 min 56 sec) 
Heartbeat CPU 0 instructions: 77000003 cycles: 51862183 heartbeat IPC: 1.39279 cumulative IPC: 1.41849 (Simulation time: 1 hr 48 min 27 sec) 
Heartbeat CPU 0 instructions: 78000002 cycles: 52563351 heartbeat IPC: 1.42619 cumulative IPC: 1.4186 (Simulation time: 1 hr 49 min 54 sec) 
Heartbeat CPU 0 instructions: 79000000 cycles: 53274302 heartbeat IPC: 1.40656 cumulative IPC: 1.41842 (Simulation time: 1 hr 51 min 22 sec) 
Heartbeat CPU 0 instructions: 80000000 cycles: 53972317 heartbeat IPC: 1.43263 cumulative IPC: 1.41862 (Simulation time: 1 hr 52 min 45 sec) 
Heartbeat CPU 0 instructions: 81000003 cycles: 54687662 heartbeat IPC: 1.39793 cumulative IPC: 1.41833 (Simulation time: 1 hr 54 min 7 sec) 
Heartbeat CPU 0 instructions: 82000000 cycles: 55388872 heartbeat IPC: 1.4261 cumulative IPC: 1.41843 (Simulation time: 1 hr 55 min 29 sec) 
Heartbeat CPU 0 instructions: 83000002 cycles: 56085979 heartbeat IPC: 1.4345 cumulative IPC: 1.41865 (Simulation time: 1 hr 56 min 50 sec) 
Heartbeat CPU 0 instructions: 84000000 cycles: 56797566 heartbeat IPC: 1.40531 cumulative IPC: 1.41847 (Simulation time: 1 hr 58 min 21 sec) 
Heartbeat CPU 0 instructions: 85000001 cycles: 57495728 heartbeat IPC: 1.43233 cumulative IPC: 1.41865 (Simulation time: 1 hr 59 min 51 sec) 
Heartbeat CPU 0 instructions: 86000001 cycles: 58210620 heartbeat IPC: 1.39881 cumulative IPC: 1.41839 (Simulation time: 2 hr 1 min 17 sec) 
Heartbeat CPU 0 instructions: 87000001 cycles: 58913099 heartbeat IPC: 1.42353 cumulative IPC: 1.41846 (Simulation time: 2 hr 2 min 47 sec) 
Heartbeat CPU 0 instructions: 88000000 cycles: 59624063 heartbeat IPC: 1.40654 cumulative IPC: 1.4183 (Simulation time: 2 hr 4 min 15 sec) 
Heartbeat CPU 0 instructions: 89000003 cycles: 60324682 heartbeat IPC: 1.42731 cumulative IPC: 1.41841 (Simulation time: 2 hr 5 min 37 sec) 
Heartbeat CPU 0 instructions: 90000001 cycles: 61039316 heartbeat IPC: 1.39931 cumulative IPC: 1.41817 (Simulation time: 2 hr 6 min 59 sec) 
Heartbeat CPU 0 instructions: 91000003 cycles: 61741648 heartbeat IPC: 1.42383 cumulative IPC: 1.41824 (Simulation time: 2 hr 8 min 23 sec) 
Heartbeat CPU 0 instructions: 92000000 cycles: 62456618 heartbeat IPC: 1.39866 cumulative IPC: 1.418 (Simulation time: 2 hr 9 min 48 sec) 
Heartbeat CPU 0 instructions: 93000001 cycles: 63158358 heartbeat IPC: 1.42503 cumulative IPC: 1.41808 (Simulation time: 2 hr 11 min 11 sec) 
Heartbeat CPU 0 instructions: 94000003 cycles: 63872785 heartbeat IPC: 1.39973 cumulative IPC: 1.41786 (Simulation time: 2 hr 12 min 32 sec) 
Heartbeat CPU 0 instructions: 95000003 cycles: 64576064 heartbeat IPC: 1.42191 cumulative IPC: 1.41791 (Simulation time: 2 hr 13 min 55 sec) 
Heartbeat CPU 0 instructions: 96000000 cycles: 65284026 heartbeat IPC: 1.4125 cumulative IPC: 1.41785 (Simulation time: 2 hr 15 min 17 sec) 
Heartbeat CPU 0 instructions: 97000000 cycles: 65994404 heartbeat IPC: 1.4077 cumulative IPC: 1.41773 (Simulation time: 2 hr 16 min 39 sec) 
Heartbeat CPU 0 instructions: 98000001 cycles: 66691729 heartbeat IPC: 1.43405 cumulative IPC: 1.41791 (Simulation time: 2 hr 17 min 58 sec) 
Heartbeat CPU 0 instructions: 99000001 cycles: 67411369 heartbeat IPC: 1.38958 cumulative IPC: 1.41759 (Simulation time: 2 hr 19 min 17 sec) 
Heartbeat CPU 0 instructions: 100000000 cycles: 68116837 heartbeat IPC: 1.4175 cumulative IPC: 1.41759 (Simulation time: 2 hr 20 min 41 sec) 
Heartbeat CPU 0 instructions: 101000002 cycles: 68839544 heartbeat IPC: 1.38369 cumulative IPC: 1.41721 (Simulation time: 2 hr 21 min 58 sec) 
Heartbeat CPU 0 instructions: 102000003 cycles: 69546174 heartbeat IPC: 1.41517 cumulative IPC: 1.41718 (Simulation time: 2 hr 23 min 18 sec) 
Heartbeat CPU 0 instructions: 103000001 cycles: 70275708 heartbeat IPC: 1.37074 cumulative IPC: 1.41667 (Simulation time: 2 hr 24 min 35 sec) 
Heartbeat CPU 0 instructions: 104000000 cycles: 70984315 heartbeat IPC: 1.41122 cumulative IPC: 1.41661 (Simulation time: 2 hr 25 min 51 sec) 
Heartbeat CPU 0 instructions: 105000003 cycles: 71707089 heartbeat IPC: 1.38356 cumulative IPC: 1.41625 (Simulation time: 2 hr 27 min 5 sec) 
Heartbeat CPU 0 instructions: 106000002 cycles: 72416013 heartbeat IPC: 1.41059 cumulative IPC: 1.41619 (Simulation time: 2 hr 28 min 18 sec) 
Heartbeat CPU 0 instructions: 107000000 cycles: 73138192 heartbeat IPC: 1.3847 cumulative IPC: 1.41586 (Simulation time: 2 hr 29 min 26 sec) 
Heartbeat CPU 0 instructions: 108000000 cycles: 73840367 heartbeat IPC: 1.42415 cumulative IPC: 1.41595 (Simulation time: 2 hr 30 min 29 sec) 
Heartbeat CPU 0 instructions: 109000002 cycles: 74540243 heartbeat IPC: 1.42883 cumulative IPC: 1.41608 (Simulation time: 2 hr 31 min 33 sec) 
Heartbeat CPU 0 instructions: 110000000 cycles: 75253993 heartbeat IPC: 1.40105 cumulative IPC: 1.41592 (Simulation time: 2 hr 32 min 35 sec) 
Finished CPU 0 instructions: 100000003 cycles: 70625294 cummulative IPC: 1.41592 (Simulation time: 2 hr 32 min 35 sec) 

ChampSim completed all CPUs

Region of Interest Statistics

CPU 0 cummulative IPC: 1.41592 instructions: 100000003 cycles: 70625294
LLC TOTAL     ACCESS:     833217  HIT:      43459  MISS:     789758
LLC LOAD      ACCESS:      26314  HIT:      10719  MISS:      15595
LLC RFO       ACCESS:     201717  HIT:       8435  MISS:     193282
LLC PREFETCH  ACCESS:     401953  HIT:       5609  MISS:     396344
LLC WRITEBACK ACCESS:     203233  HIT:      18696  MISS:     184537
