
*** ChampSim Multicore Out-of-Order Simulator ***

Warmup Instructions: 10000000
Simulation Instructions: 100000000
Configuration: 2
Number of CPUs: 1
LLC sets: 2048
LLC ways: 16
Off-chip DRAM Channels: 1 Width: 64-bit Data Rate: 1600 MT/s

CPU 0 runs /datasets/cs240c-wi22-a00-public/data/Assignment2-gz/soplex_66B.trace.gz
CPU 0 L1D next line prefetcher
CPU 0 L2C IP-based stride prefetcher
config 2, num_core 1, llc_sets 2048
Heartbeat CPU 0 instructions: 1000003 cycles: 415143 heartbeat IPC: 2.40882 cumulative IPC: 2.40882 (Simulation time: 0 hr 1 min 30 sec) 
Heartbeat CPU 0 instructions: 2000003 cycles: 837674 heartbeat IPC: 2.36669 cumulative IPC: 2.38757 (Simulation time: 0 hr 3 min 1 sec) 
Heartbeat CPU 0 instructions: 3000003 cycles: 1243299 heartbeat IPC: 2.46533 cumulative IPC: 2.41294 (Simulation time: 0 hr 4 min 31 sec) 
Heartbeat CPU 0 instructions: 4000000 cycles: 1627414 heartbeat IPC: 2.60338 cumulative IPC: 2.45789 (Simulation time: 0 hr 5 min 45 sec) 
Heartbeat CPU 0 instructions: 5000000 cycles: 2041174 heartbeat IPC: 2.41686 cumulative IPC: 2.44957 (Simulation time: 0 hr 7 min 6 sec) 
Heartbeat CPU 0 instructions: 6000000 cycles: 2513092 heartbeat IPC: 2.11901 cumulative IPC: 2.3875 (Simulation time: 0 hr 8 min 29 sec) 
Heartbeat CPU 0 instructions: 7000002 cycles: 2885878 heartbeat IPC: 2.68251 cumulative IPC: 2.42561 (Simulation time: 0 hr 9 min 51 sec) 
Heartbeat CPU 0 instructions: 8000000 cycles: 3311579 heartbeat IPC: 2.34906 cumulative IPC: 2.41577 (Simulation time: 0 hr 11 min 21 sec) 
Heartbeat CPU 0 instructions: 9000001 cycles: 3750167 heartbeat IPC: 2.28005 cumulative IPC: 2.39989 (Simulation time: 0 hr 12 min 42 sec) 
Heartbeat CPU 0 instructions: 10000002 cycles: 4162267 heartbeat IPC: 2.4266 cumulative IPC: 2.40254 (Simulation time: 0 hr 14 min 3 sec) 

Warmup complete CPU 0 instructions: 10000002 cycles: 4162267 (Simulation time: 0 hr 14 min 3 sec) 

Heartbeat CPU 0 instructions: 11000001 cycles: 7214864 heartbeat IPC: 0.32759 cumulative IPC: 0.32759 (Simulation time: 0 hr 15 min 53 sec) 
Heartbeat CPU 0 instructions: 12000000 cycles: 8558590 heartbeat IPC: 0.744199 cumulative IPC: 0.454925 (Simulation time: 0 hr 17 min 5 sec) 
Heartbeat CPU 0 instructions: 13000001 cycles: 11048793 heartbeat IPC: 0.401574 cumulative IPC: 0.435633 (Simulation time: 0 hr 18 min 35 sec) 
Heartbeat CPU 0 instructions: 14000002 cycles: 13473011 heartbeat IPC: 0.412505 cumulative IPC: 0.429611 (Simulation time: 0 hr 20 min 10 sec) 
Heartbeat CPU 0 instructions: 15000002 cycles: 16042097 heartbeat IPC: 0.389243 cumulative IPC: 0.420881 (Simulation time: 0 hr 21 min 32 sec) 
Heartbeat CPU 0 instructions: 16000000 cycles: 18830110 heartbeat IPC: 0.358678 cumulative IPC: 0.409058 (Simulation time: 0 hr 23 min 11 sec) 
Heartbeat CPU 0 instructions: 17000001 cycles: 20967457 heartbeat IPC: 0.46787 cumulative IPC: 0.416538 (Simulation time: 0 hr 24 min 51 sec) 
Heartbeat CPU 0 instructions: 18000000 cycles: 22939543 heartbeat IPC: 0.507077 cumulative IPC: 0.426047 (Simulation time: 0 hr 26 min 22 sec) 
Heartbeat CPU 0 instructions: 19000002 cycles: 26231628 heartbeat IPC: 0.303759 cumulative IPC: 0.407805 (Simulation time: 0 hr 28 min 15 sec) 
Heartbeat CPU 0 instructions: 20000000 cycles: 27568217 heartbeat IPC: 0.748172 cumulative IPC: 0.427242 (Simulation time: 0 hr 29 min 24 sec) 
Heartbeat CPU 0 instructions: 21000000 cycles: 29731389 heartbeat IPC: 0.462284 cumulative IPC: 0.430206 (Simulation time: 0 hr 30 min 44 sec) 
Heartbeat CPU 0 instructions: 22000000 cycles: 32353704 heartbeat IPC: 0.381342 cumulative IPC: 0.425661 (Simulation time: 0 hr 32 min 22 sec) 
Heartbeat CPU 0 instructions: 23000000 cycles: 34889786 heartbeat IPC: 0.394309 cumulative IPC: 0.423073 (Simulation time: 0 hr 33 min 40 sec) 
Heartbeat CPU 0 instructions: 24000000 cycles: 37484655 heartbeat IPC: 0.385376 cumulative IPC: 0.420138 (Simulation time: 0 hr 35 min 8 sec) 
Heartbeat CPU 0 instructions: 25000003 cycles: 39649793 heartbeat IPC: 0.461866 cumulative IPC: 0.422684 (Simulation time: 0 hr 37 min 6 sec) 
Heartbeat CPU 0 instructions: 26000001 cycles: 41774983 heartbeat IPC: 0.470545 cumulative IPC: 0.425388 (Simulation time: 0 hr 38 min 35 sec) 
Heartbeat CPU 0 instructions: 27000002 cycles: 45093920 heartbeat IPC: 0.301302 cumulative IPC: 0.415327 (Simulation time: 0 hr 40 min 33 sec) 
Heartbeat CPU 0 instructions: 28000000 cycles: 46435197 heartbeat IPC: 0.745557 cumulative IPC: 0.425804 (Simulation time: 0 hr 41 min 48 sec) 
Heartbeat CPU 0 instructions: 29000002 cycles: 48245668 heartbeat IPC: 0.552344 cumulative IPC: 0.431001 (Simulation time: 0 hr 43 min 8 sec) 
Heartbeat CPU 0 instructions: 30000000 cycles: 51029855 heartbeat IPC: 0.359171 cumulative IPC: 0.426734 (Simulation time: 0 hr 44 min 47 sec) 
Heartbeat CPU 0 instructions: 31000001 cycles: 53583167 heartbeat IPC: 0.391649 cumulative IPC: 0.424921 (Simulation time: 0 hr 46 min 9 sec) 
Heartbeat CPU 0 instructions: 32000000 cycles: 56101838 heartbeat IPC: 0.397034 cumulative IPC: 0.423569 (Simulation time: 0 hr 47 min 28 sec) 
Heartbeat CPU 0 instructions: 33000001 cycles: 59240621 heartbeat IPC: 0.318595 cumulative IPC: 0.417587 (Simulation time: 0 hr 49 min 22 sec) 
Heartbeat CPU 0 instructions: 34000003 cycles: 61214570 heartbeat IPC: 0.5066 cumulative IPC: 0.420667 (Simulation time: 0 hr 50 min 57 sec) 
Heartbeat CPU 0 instructions: 35000003 cycles: 64116634 heartbeat IPC: 0.344582 cumulative IPC: 0.416984 (Simulation time: 0 hr 52 min 42 sec) 
Heartbeat CPU 0 instructions: 36000000 cycles: 65445724 heartbeat IPC: 0.752392 cumulative IPC: 0.424258 (Simulation time: 0 hr 53 min 48 sec) 
Heartbeat CPU 0 instructions: 37000000 cycles: 67972157 heartbeat IPC: 0.395815 cumulative IPC: 0.423132 (Simulation time: 0 hr 55 min 14 sec) 
Heartbeat CPU 0 instructions: 38000001 cycles: 70338797 heartbeat IPC: 0.42254 cumulative IPC: 0.423111 (Simulation time: 0 hr 56 min 44 sec) 
Heartbeat CPU 0 instructions: 39000003 cycles: 72923199 heartbeat IPC: 0.386937 cumulative IPC: 0.421751 (Simulation time: 0 hr 58 min 1 sec) 
Heartbeat CPU 0 instructions: 40000000 cycles: 75690503 heartbeat IPC: 0.361361 cumulative IPC: 0.419415 (Simulation time: 0 hr 59 min 33 sec) 
Heartbeat CPU 0 instructions: 41000001 cycles: 77755135 heartbeat IPC: 0.484348 cumulative IPC: 0.421236 (Simulation time: 1 hr 1 min 9 sec) 
Heartbeat CPU 0 instructions: 42000001 cycles: 79687066 heartbeat IPC: 0.517617 cumulative IPC: 0.423702 (Simulation time: 1 hr 2 min 38 sec) 
Heartbeat CPU 0 instructions: 43000000 cycles: 82974907 heartbeat IPC: 0.304151 cumulative IPC: 0.418715 (Simulation time: 1 hr 4 min 19 sec) 
Heartbeat CPU 0 instructions: 44000000 cycles: 84309115 heartbeat IPC: 0.749508 cumulative IPC: 0.424221 (Simulation time: 1 hr 5 min 23 sec) 
Heartbeat CPU 0 instructions: 45000003 cycles: 86467787 heartbeat IPC: 0.463249 cumulative IPC: 0.425245 (Simulation time: 1 hr 6 min 41 sec) 
Heartbeat CPU 0 instructions: 46000003 cycles: 89087040 heartbeat IPC: 0.381788 cumulative IPC: 0.423905 (Simulation time: 1 hr 8 min 8 sec) 
Heartbeat CPU 0 instructions: 47000001 cycles: 91615634 heartbeat IPC: 0.395476 cumulative IPC: 0.423083 (Simulation time: 1 hr 9 min 29 sec) 
Heartbeat CPU 0 instructions: 48000000 cycles: 94172973 heartbeat IPC: 0.391031 cumulative IPC: 0.422172 (Simulation time: 1 hr 10 min 47 sec) 
Heartbeat CPU 0 instructions: 49000000 cycles: 97513884 heartbeat IPC: 0.29932 cumulative IPC: 0.417775 (Simulation time: 1 hr 12 min 51 sec) 
Heartbeat CPU 0 instructions: 50000003 cycles: 103452422 heartbeat IPC: 0.168392 cumulative IPC: 0.40286 (Simulation time: 1 hr 15 min 8 sec) 
Heartbeat CPU 0 instructions: 51000002 cycles: 105873293 heartbeat IPC: 0.413074 cumulative IPC: 0.403103 (Simulation time: 1 hr 17 min 11 sec) 
Heartbeat CPU 0 instructions: 52000000 cycles: 110198652 heartbeat IPC: 0.231194 cumulative IPC: 0.39609 (Simulation time: 1 hr 19 min 13 sec) 
Heartbeat CPU 0 instructions: 53000003 cycles: 113133380 heartbeat IPC: 0.340748 cumulative IPC: 0.3946 (Simulation time: 1 hr 21 min 3 sec) 
Heartbeat CPU 0 instructions: 54000000 cycles: 115690649 heartbeat IPC: 0.391041 cumulative IPC: 0.394518 (Simulation time: 1 hr 22 min 52 sec) 
Heartbeat CPU 0 instructions: 55000002 cycles: 119402822 heartbeat IPC: 0.269385 cumulative IPC: 0.390488 (Simulation time: 1 hr 24 min 42 sec) 
Heartbeat CPU 0 instructions: 56000000 cycles: 122977826 heartbeat IPC: 0.279719 cumulative IPC: 0.387155 (Simulation time: 1 hr 26 min 31 sec) 
Heartbeat CPU 0 instructions: 57000003 cycles: 125610541 heartbeat IPC: 0.379837 cumulative IPC: 0.386996 (Simulation time: 1 hr 28 min 2 sec) 
Heartbeat CPU 0 instructions: 58000002 cycles: 127858516 heartbeat IPC: 0.444844 cumulative IPC: 0.388047 (Simulation time: 1 hr 29 min 39 sec) 
Heartbeat CPU 0 instructions: 59000002 cycles: 129390917 heartbeat IPC: 0.652571 cumulative IPC: 0.391284 (Simulation time: 1 hr 31 min 11 sec) 
Heartbeat CPU 0 instructions: 60000000 cycles: 130601799 heartbeat IPC: 0.825843 cumulative IPC: 0.395446 (Simulation time: 1 hr 32 min 27 sec) 
Heartbeat CPU 0 instructions: 61000002 cycles: 133426023 heartbeat IPC: 0.35408 cumulative IPC: 0.394542 (Simulation time: 1 hr 34 min 14 sec) 
Heartbeat CPU 0 instructions: 62000002 cycles: 136113305 heartbeat IPC: 0.372123 cumulative IPC: 0.394086 (Simulation time: 1 hr 36 min 4 sec) 
Heartbeat CPU 0 instructions: 63000002 cycles: 138249722 heartbeat IPC: 0.468073 cumulative IPC: 0.395264 (Simulation time: 1 hr 37 min 48 sec) 
Heartbeat CPU 0 instructions: 64000000 cycles: 140657868 heartbeat IPC: 0.415256 cumulative IPC: 0.395617 (Simulation time: 1 hr 39 min 16 sec) 
Heartbeat CPU 0 instructions: 65000000 cycles: 144933182 heartbeat IPC: 0.233901 cumulative IPC: 0.390706 (Simulation time: 1 hr 41 min 30 sec) 
Heartbeat CPU 0 instructions: 66000001 cycles: 146402479 heartbeat IPC: 0.680598 cumulative IPC: 0.3937 (Simulation time: 1 hr 42 min 38 sec) 
Heartbeat CPU 0 instructions: 67000000 cycles: 147841755 heartbeat IPC: 0.694793 cumulative IPC: 0.396716 (Simulation time: 1 hr 43 min 46 sec) 
Heartbeat CPU 0 instructions: 68000000 cycles: 151306672 heartbeat IPC: 0.288607 cumulative IPC: 0.394171 (Simulation time: 1 hr 45 min 42 sec) 
Heartbeat CPU 0 instructions: 69000000 cycles: 153849316 heartbeat IPC: 0.393291 cumulative IPC: 0.394156 (Simulation time: 1 hr 47 min 1 sec) 
Heartbeat CPU 0 instructions: 70000003 cycles: 156327772 heartbeat IPC: 0.403478 cumulative IPC: 0.394307 (Simulation time: 1 hr 48 min 18 sec) 
Heartbeat CPU 0 instructions: 71000000 cycles: 158812006 heartbeat IPC: 0.402537 cumulative IPC: 0.39444 (Simulation time: 1 hr 50 min 13 sec) 
Heartbeat CPU 0 instructions: 72000000 cycles: 161476500 heartbeat IPC: 0.375306 cumulative IPC: 0.394116 (Simulation time: 1 hr 51 min 50 sec) 
Heartbeat CPU 0 instructions: 73000002 cycles: 164521125 heartbeat IPC: 0.328448 cumulative IPC: 0.392869 (Simulation time: 1 hr 53 min 43 sec) 
Heartbeat CPU 0 instructions: 74000000 cycles: 166548973 heartbeat IPC: 0.493133 cumulative IPC: 0.394121 (Simulation time: 1 hr 54 min 58 sec) 
Heartbeat CPU 0 instructions: 75000002 cycles: 167923735 heartbeat IPC: 0.7274 cumulative IPC: 0.396919 (Simulation time: 1 hr 56 min 5 sec) 
Heartbeat CPU 0 instructions: 76000000 cycles: 171125849 heartbeat IPC: 0.312293 cumulative IPC: 0.395296 (Simulation time: 1 hr 57 min 48 sec) 
Heartbeat CPU 0 instructions: 77000000 cycles: 173546521 heartbeat IPC: 0.413108 cumulative IPC: 0.39555 (Simulation time: 1 hr 59 min 7 sec) 
Heartbeat CPU 0 instructions: 78000003 cycles: 176067869 heartbeat IPC: 0.396614 cumulative IPC: 0.395566 (Simulation time: 2 hr 0 min 22 sec) 
Heartbeat CPU 0 instructions: 79000001 cycles: 179131749 heartbeat IPC: 0.326383 cumulative IPC: 0.394354 (Simulation time: 2 hr 2 min 10 sec) 
Heartbeat CPU 0 instructions: 80000000 cycles: 181557590 heartbeat IPC: 0.412228 cumulative IPC: 0.394599 (Simulation time: 2 hr 3 min 44 sec) 
Heartbeat CPU 0 instructions: 81000002 cycles: 184474686 heartbeat IPC: 0.342807 cumulative IPC: 0.393761 (Simulation time: 2 hr 5 min 37 sec) 
Heartbeat CPU 0 instructions: 82000000 cycles: 186214216 heartbeat IPC: 0.574867 cumulative IPC: 0.395492 (Simulation time: 2 hr 6 min 49 sec) 
Heartbeat CPU 0 instructions: 83000001 cycles: 187543033 heartbeat IPC: 0.75255 cumulative IPC: 0.398079 (Simulation time: 2 hr 8 min 1 sec) 
Heartbeat CPU 0 instructions: 84000000 cycles: 190685873 heartbeat IPC: 0.318183 cumulative IPC: 0.396733 (Simulation time: 2 hr 9 min 44 sec) 
Heartbeat CPU 0 instructions: 85000000 cycles: 193079785 heartbeat IPC: 0.417726 cumulative IPC: 0.396999 (Simulation time: 2 hr 11 min 3 sec) 
Heartbeat CPU 0 instructions: 86000000 cycles: 195684652 heartbeat IPC: 0.383897 cumulative IPC: 0.39682 (Simulation time: 2 hr 12 min 18 sec) 
Heartbeat CPU 0 instructions: 87000000 cycles: 198542568 heartbeat IPC: 0.349905 cumulative IPC: 0.396131 (Simulation time: 2 hr 14 min 7 sec) 
Heartbeat CPU 0 instructions: 88000000 cycles: 200650781 heartbeat IPC: 0.474335 cumulative IPC: 0.39697 (Simulation time: 2 hr 15 min 38 sec) 
Heartbeat CPU 0 instructions: 89000001 cycles: 203891398 heartbeat IPC: 0.308584 cumulative IPC: 0.395536 (Simulation time: 2 hr 17 min 28 sec) 
Heartbeat CPU 0 instructions: 90000002 cycles: 205233031 heartbeat IPC: 0.745361 cumulative IPC: 0.39787 (Simulation time: 2 hr 18 min 29 sec) 
Heartbeat CPU 0 instructions: 91000000 cycles: 206630281 heartbeat IPC: 0.71569 cumulative IPC: 0.400063 (Simulation time: 2 hr 19 min 38 sec) 
Heartbeat CPU 0 instructions: 92000000 cycles: 209722358 heartbeat IPC: 0.323407 cumulative IPC: 0.39891 (Simulation time: 2 hr 21 min 22 sec) 
Heartbeat CPU 0 instructions: 93000000 cycles: 212324152 heartbeat IPC: 0.38435 cumulative IPC: 0.398728 (Simulation time: 2 hr 22 min 41 sec) 
Heartbeat CPU 0 instructions: 94000001 cycles: 214854043 heartbeat IPC: 0.395274 cumulative IPC: 0.398687 (Simulation time: 2 hr 24 min 0 sec) 
Heartbeat CPU 0 instructions: 95000003 cycles: 217870783 heartbeat IPC: 0.331484 cumulative IPC: 0.397738 (Simulation time: 2 hr 25 min 47 sec) 
Heartbeat CPU 0 instructions: 96000000 cycles: 219754993 heartbeat IPC: 0.530725 cumulative IPC: 0.3989 (Simulation time: 2 hr 27 min 14 sec) 
Heartbeat CPU 0 instructions: 97000003 cycles: 222847872 heartbeat IPC: 0.323324 cumulative IPC: 0.397831 (Simulation time: 2 hr 28 min 44 sec) 
Heartbeat CPU 0 instructions: 98000003 cycles: 224173981 heartbeat IPC: 0.754086 cumulative IPC: 0.399979 (Simulation time: 2 hr 29 min 43 sec) 
Heartbeat CPU 0 instructions: 99000000 cycles: 226505623 heartbeat IPC: 0.428881 cumulative IPC: 0.400282 (Simulation time: 2 hr 30 min 57 sec) 
Heartbeat CPU 0 instructions: 100000000 cycles: 229043782 heartbeat IPC: 0.393986 cumulative IPC: 0.400211 (Simulation time: 2 hr 32 min 17 sec) 
Heartbeat CPU 0 instructions: 101000001 cycles: 231562025 heartbeat IPC: 0.397103 cumulative IPC: 0.400176 (Simulation time: 2 hr 33 min 17 sec) 
Heartbeat CPU 0 instructions: 102000002 cycles: 234210568 heartbeat IPC: 0.377566 cumulative IPC: 0.399916 (Simulation time: 2 hr 34 min 12 sec) 
Heartbeat CPU 0 instructions: 103000002 cycles: 237148303 heartbeat IPC: 0.340398 cumulative IPC: 0.399166 (Simulation time: 2 hr 35 min 21 sec) 
Heartbeat CPU 0 instructions: 104000000 cycles: 239295484 heartbeat IPC: 0.465726 cumulative IPC: 0.399773 (Simulation time: 2 hr 36 min 29 sec) 
Heartbeat CPU 0 instructions: 105000000 cycles: 241680537 heartbeat IPC: 0.419278 cumulative IPC: 0.399969 (Simulation time: 2 hr 37 min 23 sec) 
Heartbeat CPU 0 instructions: 106000001 cycles: 242999870 heartbeat IPC: 0.757959 cumulative IPC: 0.401947 (Simulation time: 2 hr 38 min 3 sec) 
Heartbeat CPU 0 instructions: 107000001 cycles: 245929878 heartbeat IPC: 0.341296 cumulative IPC: 0.401212 (Simulation time: 2 hr 39 min 1 sec) 
Heartbeat CPU 0 instructions: 108000000 cycles: 248135609 heartbeat IPC: 0.453364 cumulative IPC: 0.401683 (Simulation time: 2 hr 39 min 45 sec) 
Heartbeat CPU 0 instructions: 109000003 cycles: 250701811 heartbeat IPC: 0.389682 cumulative IPC: 0.401558 (Simulation time: 2 hr 40 min 31 sec) 
Heartbeat CPU 0 instructions: 110000001 cycles: 253629451 heartbeat IPC: 0.341571 cumulative IPC: 0.400854 (Simulation time: 2 hr 41 min 22 sec) 
Finished CPU 0 instructions: 100000003 cycles: 249467185 cummulative IPC: 0.400854 (Simulation time: 2 hr 41 min 22 sec) 

ChampSim completed all CPUs

Region of Interest Statistics

CPU 0 cummulative IPC: 0.400854 instructions: 100000003 cycles: 249467185
LLC TOTAL     ACCESS:    6602840  HIT:    2888089  MISS:    3714751
LLC LOAD      ACCESS:    1698869  HIT:     748854  MISS:     950015
LLC RFO       ACCESS:     658492  HIT:     287827  MISS:     370665
LLC PREFETCH  ACCESS:    2684827  HIT:     917376  MISS:    1767451
LLC WRITEBACK ACCESS:    1560652  HIT:     934032  MISS:     626620
