
*** ChampSim Multicore Out-of-Order Simulator ***

Warmup Instructions: 10000000
Simulation Instructions: 100000000
Configuration: 2
Number of CPUs: 1
LLC sets: 2048
LLC ways: 16
Off-chip DRAM Channels: 1 Width: 64-bit Data Rate: 1600 MT/s

CPU 0 runs /datasets/cs240c-wi22-a00-public/data/Assignment2-gz/sphinx3_883B.trace.gz
CPU 0 L1D next line prefetcher
CPU 0 L2C IP-based stride prefetcher
config 2, num_core 1, llc_sets 2048
Heartbeat CPU 0 instructions: 1000003 cycles: 414397 heartbeat IPC: 2.41315 cumulative IPC: 2.41315 (Simulation time: 0 hr 1 min 25 sec) 
Heartbeat CPU 0 instructions: 2000000 cycles: 824020 heartbeat IPC: 2.44126 cumulative IPC: 2.42713 (Simulation time: 0 hr 2 min 46 sec) 
Heartbeat CPU 0 instructions: 3000003 cycles: 1298605 heartbeat IPC: 2.10711 cumulative IPC: 2.31017 (Simulation time: 0 hr 4 min 5 sec) 
Heartbeat CPU 0 instructions: 4000000 cycles: 1637496 heartbeat IPC: 2.95079 cumulative IPC: 2.44275 (Simulation time: 0 hr 5 min 16 sec) 
Heartbeat CPU 0 instructions: 5000000 cycles: 1992162 heartbeat IPC: 2.81955 cumulative IPC: 2.50984 (Simulation time: 0 hr 6 min 32 sec) 
Heartbeat CPU 0 instructions: 6000003 cycles: 2406615 heartbeat IPC: 2.41283 cumulative IPC: 2.49313 (Simulation time: 0 hr 7 min 57 sec) 
Heartbeat CPU 0 instructions: 7000002 cycles: 2815425 heartbeat IPC: 2.44612 cumulative IPC: 2.4863 (Simulation time: 0 hr 9 min 21 sec) 
Heartbeat CPU 0 instructions: 8000000 cycles: 3291635 heartbeat IPC: 2.09991 cumulative IPC: 2.4304 (Simulation time: 0 hr 10 min 38 sec) 
Heartbeat CPU 0 instructions: 9000001 cycles: 3630635 heartbeat IPC: 2.94986 cumulative IPC: 2.47891 (Simulation time: 0 hr 11 min 52 sec) 
Heartbeat CPU 0 instructions: 10000000 cycles: 3984703 heartbeat IPC: 2.82431 cumulative IPC: 2.5096 (Simulation time: 0 hr 13 min 3 sec) 

Warmup complete CPU 0 instructions: 10000004 cycles: 3984704 (Simulation time: 0 hr 13 min 3 sec) 

Heartbeat CPU 0 instructions: 11000002 cycles: 5594867 heartbeat IPC: 0.621056 cumulative IPC: 0.621054 (Simulation time: 0 hr 14 min 32 sec) 
Heartbeat CPU 0 instructions: 12000000 cycles: 7205994 heartbeat IPC: 0.620682 cumulative IPC: 0.620868 (Simulation time: 0 hr 16 min 1 sec) 
Heartbeat CPU 0 instructions: 13000001 cycles: 8386909 heartbeat IPC: 0.846802 cumulative IPC: 0.681476 (Simulation time: 0 hr 17 min 18 sec) 
Heartbeat CPU 0 instructions: 14000002 cycles: 9305889 heartbeat IPC: 1.08816 cumulative IPC: 0.751712 (Simulation time: 0 hr 18 min 36 sec) 
Heartbeat CPU 0 instructions: 15000000 cycles: 10260485 heartbeat IPC: 1.04756 cumulative IPC: 0.796713 (Simulation time: 0 hr 19 min 57 sec) 
Heartbeat CPU 0 instructions: 16000000 cycles: 11689638 heartbeat IPC: 0.699715 cumulative IPC: 0.778721 (Simulation time: 0 hr 21 min 26 sec) 
Heartbeat CPU 0 instructions: 17000000 cycles: 13180013 heartbeat IPC: 0.670972 cumulative IPC: 0.761257 (Simulation time: 0 hr 22 min 53 sec) 
Heartbeat CPU 0 instructions: 18000002 cycles: 14433096 heartbeat IPC: 0.798033 cumulative IPC: 0.765668 (Simulation time: 0 hr 24 min 15 sec) 
Heartbeat CPU 0 instructions: 19000003 cycles: 15352157 heartbeat IPC: 1.08807 cumulative IPC: 0.791734 (Simulation time: 0 hr 25 min 34 sec) 
Heartbeat CPU 0 instructions: 20000000 cycles: 16242964 heartbeat IPC: 1.12257 cumulative IPC: 0.815776 (Simulation time: 0 hr 26 min 47 sec) 
Heartbeat CPU 0 instructions: 21000000 cycles: 17683065 heartbeat IPC: 0.694396 cumulative IPC: 0.803015 (Simulation time: 0 hr 28 min 9 sec) 
Heartbeat CPU 0 instructions: 22000002 cycles: 19190919 heartbeat IPC: 0.663195 cumulative IPC: 0.789151 (Simulation time: 0 hr 29 min 34 sec) 
Heartbeat CPU 0 instructions: 23000001 cycles: 20652553 heartbeat IPC: 0.684165 cumulative IPC: 0.779944 (Simulation time: 0 hr 30 min 53 sec) 
Heartbeat CPU 0 instructions: 24000000 cycles: 21566619 heartbeat IPC: 1.09401 cumulative IPC: 0.796273 (Simulation time: 0 hr 32 min 16 sec) 
Heartbeat CPU 0 instructions: 25000003 cycles: 22470014 heartbeat IPC: 1.10694 cumulative IPC: 0.811455 (Simulation time: 0 hr 33 min 33 sec) 
Heartbeat CPU 0 instructions: 26000001 cycles: 23658084 heartbeat IPC: 0.8417 cumulative IPC: 0.813282 (Simulation time: 0 hr 34 min 57 sec) 
Heartbeat CPU 0 instructions: 27000000 cycles: 25127287 heartbeat IPC: 0.68064 cumulative IPC: 0.804064 (Simulation time: 0 hr 36 min 30 sec) 
Heartbeat CPU 0 instructions: 28000000 cycles: 26617326 heartbeat IPC: 0.671123 cumulative IPC: 0.795312 (Simulation time: 0 hr 37 min 55 sec) 
Heartbeat CPU 0 instructions: 29000000 cycles: 27629603 heartbeat IPC: 0.987872 cumulative IPC: 0.803556 (Simulation time: 0 hr 39 min 17 sec) 
Heartbeat CPU 0 instructions: 30000002 cycles: 28531429 heartbeat IPC: 1.10886 cumulative IPC: 0.814773 (Simulation time: 0 hr 40 min 44 sec) 
Heartbeat CPU 0 instructions: 31000003 cycles: 29617271 heartbeat IPC: 0.920945 cumulative IPC: 0.81927 (Simulation time: 0 hr 42 min 14 sec) 
Heartbeat CPU 0 instructions: 32000000 cycles: 31068889 heartbeat IPC: 0.688884 cumulative IPC: 0.812282 (Simulation time: 0 hr 43 min 52 sec) 
Heartbeat CPU 0 instructions: 33000000 cycles: 32499600 heartbeat IPC: 0.698953 cumulative IPC: 0.806596 (Simulation time: 0 hr 45 min 24 sec) 
Heartbeat CPU 0 instructions: 34000000 cycles: 33619656 heartbeat IPC: 0.892812 cumulative IPC: 0.809854 (Simulation time: 0 hr 46 min 52 sec) 
Heartbeat CPU 0 instructions: 35000003 cycles: 34515790 heartbeat IPC: 1.11591 cumulative IPC: 0.818838 (Simulation time: 0 hr 48 min 19 sec) 
Heartbeat CPU 0 instructions: 36000000 cycles: 35560543 heartbeat IPC: 0.957161 cumulative IPC: 0.823414 (Simulation time: 0 hr 49 min 48 sec) 
Heartbeat CPU 0 instructions: 37000001 cycles: 37022379 heartbeat IPC: 0.684072 cumulative IPC: 0.817249 (Simulation time: 0 hr 51 min 19 sec) 
Heartbeat CPU 0 instructions: 38000000 cycles: 38450479 heartbeat IPC: 0.70023 cumulative IPC: 0.8124 (Simulation time: 0 hr 52 min 52 sec) 
Heartbeat CPU 0 instructions: 39000003 cycles: 39550124 heartbeat IPC: 0.909387 cumulative IPC: 0.815399 (Simulation time: 0 hr 54 min 19 sec) 
Heartbeat CPU 0 instructions: 40000000 cycles: 40443132 heartbeat IPC: 1.11981 cumulative IPC: 0.822855 (Simulation time: 0 hr 55 min 46 sec) 
Heartbeat CPU 0 instructions: 41000003 cycles: 41474271 heartbeat IPC: 0.969804 cumulative IPC: 0.826897 (Simulation time: 0 hr 57 min 17 sec) 
Heartbeat CPU 0 instructions: 42000000 cycles: 42943814 heartbeat IPC: 0.680482 cumulative IPC: 0.821374 (Simulation time: 0 hr 58 min 48 sec) 
Heartbeat CPU 0 instructions: 43000003 cycles: 44402648 heartbeat IPC: 0.685481 cumulative IPC: 0.816469 (Simulation time: 1 hr 0 min 21 sec) 
Heartbeat CPU 0 instructions: 44000000 cycles: 45441202 heartbeat IPC: 0.962874 cumulative IPC: 0.820137 (Simulation time: 1 hr 1 min 55 sec) 
Heartbeat CPU 0 instructions: 45000002 cycles: 46332401 heartbeat IPC: 1.12209 cumulative IPC: 0.826491 (Simulation time: 1 hr 3 min 22 sec) 
Heartbeat CPU 0 instructions: 46000001 cycles: 47390519 heartbeat IPC: 0.945073 cumulative IPC: 0.829382 (Simulation time: 1 hr 4 min 47 sec) 
Heartbeat CPU 0 instructions: 47000002 cycles: 48844665 heartbeat IPC: 0.68769 cumulative IPC: 0.824789 (Simulation time: 1 hr 6 min 19 sec) 
Heartbeat CPU 0 instructions: 48000000 cycles: 50311554 heartbeat IPC: 0.681713 cumulative IPC: 0.820259 (Simulation time: 1 hr 7 min 46 sec) 
Heartbeat CPU 0 instructions: 49000001 cycles: 51272107 heartbeat IPC: 1.04107 cumulative IPC: 0.824744 (Simulation time: 1 hr 9 min 8 sec) 
Heartbeat CPU 0 instructions: 50000000 cycles: 52154157 heartbeat IPC: 1.13372 cumulative IPC: 0.830402 (Simulation time: 1 hr 10 min 27 sec) 
Heartbeat CPU 0 instructions: 51000003 cycles: 53240919 heartbeat IPC: 0.920167 cumulative IPC: 0.832382 (Simulation time: 1 hr 11 min 50 sec) 
Heartbeat CPU 0 instructions: 52000000 cycles: 54723222 heartbeat IPC: 0.674624 cumulative IPC: 0.827773 (Simulation time: 1 hr 13 min 31 sec) 
Heartbeat CPU 0 instructions: 53000000 cycles: 56417508 heartbeat IPC: 0.590219 cumulative IPC: 0.820097 (Simulation time: 1 hr 15 min 9 sec) 
Heartbeat CPU 0 instructions: 54000003 cycles: 57735893 heartbeat IPC: 0.758506 cumulative IPC: 0.818587 (Simulation time: 1 hr 16 min 38 sec) 
Heartbeat CPU 0 instructions: 55000003 cycles: 58627194 heartbeat IPC: 1.12196 cumulative IPC: 0.823535 (Simulation time: 1 hr 18 min 4 sec) 
Heartbeat CPU 0 instructions: 56000000 cycles: 59511709 heartbeat IPC: 1.13056 cumulative IPC: 0.828426 (Simulation time: 1 hr 19 min 32 sec) 
Heartbeat CPU 0 instructions: 57000002 cycles: 60618724 heartbeat IPC: 0.903332 cumulative IPC: 0.82989 (Simulation time: 1 hr 21 min 8 sec) 
Heartbeat CPU 0 instructions: 58000001 cycles: 61630593 heartbeat IPC: 0.988269 cumulative IPC: 0.83267 (Simulation time: 1 hr 22 min 42 sec) 
Heartbeat CPU 0 instructions: 59000003 cycles: 62501380 heartbeat IPC: 1.14839 cumulative IPC: 0.837368 (Simulation time: 1 hr 24 min 11 sec) 
Heartbeat CPU 0 instructions: 60000000 cycles: 63389767 heartbeat IPC: 1.12563 cumulative IPC: 0.841679 (Simulation time: 1 hr 25 min 36 sec) 
Heartbeat CPU 0 instructions: 61000001 cycles: 64517001 heartbeat IPC: 0.887128 cumulative IPC: 0.842525 (Simulation time: 1 hr 27 min 8 sec) 
Heartbeat CPU 0 instructions: 62000001 cycles: 65382662 heartbeat IPC: 1.15519 cumulative IPC: 0.846934 (Simulation time: 1 hr 28 min 36 sec) 
Heartbeat CPU 0 instructions: 63000003 cycles: 66227064 heartbeat IPC: 1.18427 cumulative IPC: 0.85151 (Simulation time: 1 hr 30 min 2 sec) 
Heartbeat CPU 0 instructions: 64000000 cycles: 67408292 heartbeat IPC: 0.846574 cumulative IPC: 0.851418 (Simulation time: 1 hr 31 min 32 sec) 
Heartbeat CPU 0 instructions: 65000003 cycles: 68271715 heartbeat IPC: 1.15818 cumulative IPC: 0.855538 (Simulation time: 1 hr 32 min 53 sec) 
Heartbeat CPU 0 instructions: 66000002 cycles: 69124290 heartbeat IPC: 1.17292 cumulative IPC: 0.859692 (Simulation time: 1 hr 34 min 20 sec) 
Heartbeat CPU 0 instructions: 67000000 cycles: 70290075 heartbeat IPC: 0.857789 cumulative IPC: 0.859659 (Simulation time: 1 hr 35 min 51 sec) 
Heartbeat CPU 0 instructions: 68000000 cycles: 71790594 heartbeat IPC: 0.666436 cumulative IPC: 0.855383 (Simulation time: 1 hr 37 min 26 sec) 
Heartbeat CPU 0 instructions: 69000003 cycles: 72652669 heartbeat IPC: 1.16 cumulative IPC: 0.859207 (Simulation time: 1 hr 38 min 54 sec) 
Heartbeat CPU 0 instructions: 70000000 cycles: 73505500 heartbeat IPC: 1.17256 cumulative IPC: 0.863051 (Simulation time: 1 hr 40 min 18 sec) 
Heartbeat CPU 0 instructions: 71000000 cycles: 74601630 heartbeat IPC: 0.912301 cumulative IPC: 0.863815 (Simulation time: 1 hr 41 min 47 sec) 
Heartbeat CPU 0 instructions: 72000000 cycles: 75990147 heartbeat IPC: 0.720193 cumulative IPC: 0.861046 (Simulation time: 1 hr 43 min 22 sec) 
Heartbeat CPU 0 instructions: 73000000 cycles: 76850588 heartbeat IPC: 1.16219 cumulative IPC: 0.864602 (Simulation time: 1 hr 44 min 48 sec) 
Heartbeat CPU 0 instructions: 74000000 cycles: 77709916 heartbeat IPC: 1.1637 cumulative IPC: 0.868088 (Simulation time: 1 hr 46 min 14 sec) 
Heartbeat CPU 0 instructions: 75000000 cycles: 78856315 heartbeat IPC: 0.872297 cumulative IPC: 0.868153 (Simulation time: 1 hr 47 min 46 sec) 
Heartbeat CPU 0 instructions: 76000000 cycles: 80108250 heartbeat IPC: 0.798764 cumulative IPC: 0.867012 (Simulation time: 1 hr 49 min 19 sec) 
Heartbeat CPU 0 instructions: 77000003 cycles: 80975862 heartbeat IPC: 1.15259 cumulative IPC: 0.87023 (Simulation time: 1 hr 50 min 47 sec) 
Heartbeat CPU 0 instructions: 78000000 cycles: 81815184 heartbeat IPC: 1.19143 cumulative IPC: 0.873694 (Simulation time: 1 hr 52 min 10 sec) 
Heartbeat CPU 0 instructions: 79000001 cycles: 83086662 heartbeat IPC: 0.786487 cumulative IPC: 0.872292 (Simulation time: 1 hr 53 min 33 sec) 
Heartbeat CPU 0 instructions: 80000000 cycles: 84209613 heartbeat IPC: 0.89051 cumulative IPC: 0.872547 (Simulation time: 1 hr 54 min 55 sec) 
Heartbeat CPU 0 instructions: 81000000 cycles: 85080300 heartbeat IPC: 1.14852 cumulative IPC: 0.87551 (Simulation time: 1 hr 56 min 14 sec) 
Heartbeat CPU 0 instructions: 82000000 cycles: 85910705 heartbeat IPC: 1.20423 cumulative IPC: 0.878842 (Simulation time: 1 hr 57 min 38 sec) 
Heartbeat CPU 0 instructions: 83000000 cycles: 87295211 heartbeat IPC: 0.722279 cumulative IPC: 0.87624 (Simulation time: 1 hr 59 min 3 sec) 
Heartbeat CPU 0 instructions: 84000000 cycles: 88206725 heartbeat IPC: 1.09708 cumulative IPC: 0.87863 (Simulation time: 2 hr 0 min 22 sec) 
Heartbeat CPU 0 instructions: 85000001 cycles: 89050234 heartbeat IPC: 1.18552 cumulative IPC: 0.881673 (Simulation time: 2 hr 1 min 37 sec) 
Heartbeat CPU 0 instructions: 86000001 cycles: 90058743 heartbeat IPC: 0.991563 cumulative IPC: 0.882961 (Simulation time: 2 hr 3 min 2 sec) 
Heartbeat CPU 0 instructions: 87000000 cycles: 91220115 heartbeat IPC: 0.86105 cumulative IPC: 0.882669 (Simulation time: 2 hr 4 min 25 sec) 
Heartbeat CPU 0 instructions: 88000000 cycles: 92082069 heartbeat IPC: 1.16015 cumulative IPC: 0.885384 (Simulation time: 2 hr 5 min 47 sec) 
Heartbeat CPU 0 instructions: 89000000 cycles: 92902755 heartbeat IPC: 1.21849 cumulative IPC: 0.888458 (Simulation time: 2 hr 7 min 4 sec) 
Heartbeat CPU 0 instructions: 90000000 cycles: 94176782 heartbeat IPC: 0.784913 cumulative IPC: 0.886996 (Simulation time: 2 hr 8 min 28 sec) 
Heartbeat CPU 0 instructions: 91000003 cycles: 95409418 heartbeat IPC: 0.811272 cumulative IPC: 0.885975 (Simulation time: 2 hr 9 min 58 sec) 
Heartbeat CPU 0 instructions: 92000000 cycles: 96365060 heartbeat IPC: 1.04641 cumulative IPC: 0.887635 (Simulation time: 2 hr 11 min 19 sec) 
Heartbeat CPU 0 instructions: 93000000 cycles: 97207383 heartbeat IPC: 1.18719 cumulative IPC: 0.890341 (Simulation time: 2 hr 12 min 40 sec) 
Heartbeat CPU 0 instructions: 94000002 cycles: 98029340 heartbeat IPC: 1.21661 cumulative IPC: 0.893193 (Simulation time: 2 hr 13 min 59 sec) 
Heartbeat CPU 0 instructions: 95000001 cycles: 99364468 heartbeat IPC: 0.748991 cumulative IPC: 0.891174 (Simulation time: 2 hr 15 min 24 sec) 
Heartbeat CPU 0 instructions: 96000000 cycles: 100223262 heartbeat IPC: 1.16442 cumulative IPC: 0.893613 (Simulation time: 2 hr 16 min 43 sec) 
Heartbeat CPU 0 instructions: 97000002 cycles: 101066890 heartbeat IPC: 1.18536 cumulative IPC: 0.896148 (Simulation time: 2 hr 18 min 5 sec) 
Heartbeat CPU 0 instructions: 98000003 cycles: 102217037 heartbeat IPC: 0.869455 cumulative IPC: 0.895835 (Simulation time: 2 hr 19 min 25 sec) 
Heartbeat CPU 0 instructions: 99000000 cycles: 103268424 heartbeat IPC: 0.951122 cumulative IPC: 0.896421 (Simulation time: 2 hr 20 min 47 sec) 
Heartbeat CPU 0 instructions: 100000000 cycles: 104121330 heartbeat IPC: 1.17246 cumulative IPC: 0.898772 (Simulation time: 2 hr 22 min 4 sec) 
Heartbeat CPU 0 instructions: 101000000 cycles: 104950081 heartbeat IPC: 1.20663 cumulative IPC: 0.901299 (Simulation time: 2 hr 23 min 24 sec) 
Heartbeat CPU 0 instructions: 102000003 cycles: 106371538 heartbeat IPC: 0.703506 cumulative IPC: 0.898553 (Simulation time: 2 hr 24 min 48 sec) 
Heartbeat CPU 0 instructions: 103000001 cycles: 107297363 heartbeat IPC: 1.08012 cumulative IPC: 0.90018 (Simulation time: 2 hr 26 min 1 sec) 
Heartbeat CPU 0 instructions: 104000000 cycles: 108135252 heartbeat IPC: 1.19347 cumulative IPC: 0.90254 (Simulation time: 2 hr 27 min 12 sec) 
Heartbeat CPU 0 instructions: 105000002 cycles: 109180238 heartbeat IPC: 0.956953 cumulative IPC: 0.90308 (Simulation time: 2 hr 28 min 23 sec) 
Heartbeat CPU 0 instructions: 106000003 cycles: 110595883 heartbeat IPC: 0.706392 cumulative IPC: 0.900468 (Simulation time: 2 hr 29 min 31 sec) 
Heartbeat CPU 0 instructions: 107000001 cycles: 111462313 heartbeat IPC: 1.15416 cumulative IPC: 0.902514 (Simulation time: 2 hr 30 min 33 sec) 
Heartbeat CPU 0 instructions: 108000000 cycles: 112303588 heartbeat IPC: 1.18867 cumulative IPC: 0.904736 (Simulation time: 2 hr 31 min 33 sec) 
Heartbeat CPU 0 instructions: 109000001 cycles: 113413791 heartbeat IPC: 0.900737 cumulative IPC: 0.904695 (Simulation time: 2 hr 32 min 37 sec) 
Heartbeat CPU 0 instructions: 110000000 cycles: 114753418 heartbeat IPC: 0.746476 cumulative IPC: 0.902782 (Simulation time: 2 hr 33 min 40 sec) 
Finished CPU 0 instructions: 100000000 cycles: 110768715 cummulative IPC: 0.902782 (Simulation time: 2 hr 33 min 40 sec) 

ChampSim completed all CPUs

Region of Interest Statistics

CPU 0 cummulative IPC: 0.902782 instructions: 100000000 cycles: 110768715
LLC TOTAL     ACCESS:    1795828  HIT:     678307  MISS:    1117521
LLC LOAD      ACCESS:     314487  HIT:     268660  MISS:      45827
LLC RFO       ACCESS:      99582  HIT:      86410  MISS:      13172
LLC PREFETCH  ACCESS:    1240338  HIT:     194092  MISS:    1046246
LLC WRITEBACK ACCESS:     141421  HIT:     129145  MISS:      12276
