
*** ChampSim Multicore Out-of-Order Simulator ***

Warmup Instructions: 10000000
Simulation Instructions: 100000000
Configuration: 2
Number of CPUs: 1
LLC sets: 2048
LLC ways: 16
Off-chip DRAM Channels: 1 Width: 64-bit Data Rate: 1600 MT/s

CPU 0 runs /datasets/cs240c-wi22-a00-public/data/Assignment2-gz/soplex_217B.trace.gz
CPU 0 L1D next line prefetcher
CPU 0 L2C IP-based stride prefetcher
config 2, num_core 1, llc_sets 2048
Heartbeat CPU 0 instructions: 1000002 cycles: 441514 heartbeat IPC: 2.26494 cumulative IPC: 2.26494 (Simulation time: 0 hr 2 min 3 sec) 
Heartbeat CPU 0 instructions: 2000003 cycles: 800745 heartbeat IPC: 2.78373 cumulative IPC: 2.49768 (Simulation time: 0 hr 3 min 37 sec) 
Heartbeat CPU 0 instructions: 3000002 cycles: 1245873 heartbeat IPC: 2.24654 cumulative IPC: 2.40795 (Simulation time: 0 hr 5 min 24 sec) 
Heartbeat CPU 0 instructions: 4000000 cycles: 1674438 heartbeat IPC: 2.33336 cumulative IPC: 2.38886 (Simulation time: 0 hr 7 min 16 sec) 
Heartbeat CPU 0 instructions: 5000001 cycles: 2058485 heartbeat IPC: 2.60385 cumulative IPC: 2.42897 (Simulation time: 0 hr 8 min 41 sec) 
Heartbeat CPU 0 instructions: 6000000 cycles: 2432975 heartbeat IPC: 2.6703 cumulative IPC: 2.46612 (Simulation time: 0 hr 10 min 1 sec) 
Heartbeat CPU 0 instructions: 7000003 cycles: 2962884 heartbeat IPC: 1.88712 cumulative IPC: 2.36256 (Simulation time: 0 hr 11 min 29 sec) 
Heartbeat CPU 0 instructions: 8000000 cycles: 3409699 heartbeat IPC: 2.23806 cumulative IPC: 2.34625 (Simulation time: 0 hr 13 min 20 sec) 
Heartbeat CPU 0 instructions: 9000001 cycles: 3834239 heartbeat IPC: 2.35549 cumulative IPC: 2.34727 (Simulation time: 0 hr 14 min 51 sec) 
Heartbeat CPU 0 instructions: 10000000 cycles: 4246785 heartbeat IPC: 2.42397 cumulative IPC: 2.35472 (Simulation time: 0 hr 16 min 23 sec) 

Warmup complete CPU 0 instructions: 10000004 cycles: 4246786 (Simulation time: 0 hr 16 min 23 sec) 

Heartbeat CPU 0 instructions: 11000002 cycles: 8084404 heartbeat IPC: 0.260579 cumulative IPC: 0.260578 (Simulation time: 0 hr 18 min 43 sec) 
Heartbeat CPU 0 instructions: 12000000 cycles: 10699151 heartbeat IPC: 0.382445 cumulative IPC: 0.309963 (Simulation time: 0 hr 20 min 26 sec) 
Heartbeat CPU 0 instructions: 13000000 cycles: 12039091 heartbeat IPC: 0.746302 cumulative IPC: 0.384995 (Simulation time: 0 hr 21 min 38 sec) 
Heartbeat CPU 0 instructions: 14000000 cycles: 14672536 heartbeat IPC: 0.379731 cumulative IPC: 0.383665 (Simulation time: 0 hr 23 min 12 sec) 
Heartbeat CPU 0 instructions: 15000000 cycles: 17462701 heartbeat IPC: 0.358402 cumulative IPC: 0.378331 (Simulation time: 0 hr 25 min 4 sec) 
Heartbeat CPU 0 instructions: 16000000 cycles: 21261269 heartbeat IPC: 0.263257 cumulative IPC: 0.352641 (Simulation time: 0 hr 27 min 25 sec) 
Heartbeat CPU 0 instructions: 17000002 cycles: 23674367 heartbeat IPC: 0.414406 cumulative IPC: 0.360312 (Simulation time: 0 hr 29 min 6 sec) 
Heartbeat CPU 0 instructions: 18000003 cycles: 26202453 heartbeat IPC: 0.395557 cumulative IPC: 0.364371 (Simulation time: 0 hr 30 min 56 sec) 
Heartbeat CPU 0 instructions: 19000000 cycles: 29731625 heartbeat IPC: 0.283352 cumulative IPC: 0.353151 (Simulation time: 0 hr 32 min 57 sec) 
Heartbeat CPU 0 instructions: 20000000 cycles: 31054611 heartbeat IPC: 0.755866 cumulative IPC: 0.373025 (Simulation time: 0 hr 34 min 4 sec) 
Heartbeat CPU 0 instructions: 21000000 cycles: 32504925 heartbeat IPC: 0.689506 cumulative IPC: 0.389268 (Simulation time: 0 hr 35 min 23 sec) 
Heartbeat CPU 0 instructions: 22000001 cycles: 35674726 heartbeat IPC: 0.315478 cumulative IPC: 0.381826 (Simulation time: 0 hr 37 min 13 sec) 
Heartbeat CPU 0 instructions: 23000003 cycles: 39512238 heartbeat IPC: 0.260586 cumulative IPC: 0.368633 (Simulation time: 0 hr 39 min 19 sec) 
Heartbeat CPU 0 instructions: 24000000 cycles: 42722195 heartbeat IPC: 0.31153 cumulative IPC: 0.363869 (Simulation time: 0 hr 41 min 25 sec) 
Heartbeat CPU 0 instructions: 25000001 cycles: 44283935 heartbeat IPC: 0.640312 cumulative IPC: 0.374652 (Simulation time: 0 hr 43 min 9 sec) 
Heartbeat CPU 0 instructions: 26000003 cycles: 48138227 heartbeat IPC: 0.259452 cumulative IPC: 0.364536 (Simulation time: 0 hr 45 min 25 sec) 
Heartbeat CPU 0 instructions: 27000002 cycles: 50524326 heartbeat IPC: 0.419094 cumulative IPC: 0.367349 (Simulation time: 0 hr 47 min 1 sec) 
Heartbeat CPU 0 instructions: 28000000 cycles: 51848815 heartbeat IPC: 0.755007 cumulative IPC: 0.378135 (Simulation time: 0 hr 48 min 17 sec) 
Heartbeat CPU 0 instructions: 29000002 cycles: 54550775 heartbeat IPC: 0.370102 cumulative IPC: 0.377704 (Simulation time: 0 hr 49 min 50 sec) 
Heartbeat CPU 0 instructions: 30000002 cycles: 57437760 heartbeat IPC: 0.346382 cumulative IPC: 0.376004 (Simulation time: 0 hr 51 min 45 sec) 
Heartbeat CPU 0 instructions: 31000000 cycles: 60849434 heartbeat IPC: 0.293111 cumulative IPC: 0.371007 (Simulation time: 0 hr 53 min 43 sec) 
Heartbeat CPU 0 instructions: 32000000 cycles: 62708237 heartbeat IPC: 0.537981 cumulative IPC: 0.376316 (Simulation time: 0 hr 55 min 18 sec) 
Heartbeat CPU 0 instructions: 33000001 cycles: 66211655 heartbeat IPC: 0.285436 cumulative IPC: 0.371178 (Simulation time: 0 hr 57 min 27 sec) 
Heartbeat CPU 0 instructions: 34000000 cycles: 69040576 heartbeat IPC: 0.353491 cumulative IPC: 0.370406 (Simulation time: 0 hr 59 min 4 sec) 
Heartbeat CPU 0 instructions: 35000002 cycles: 70373938 heartbeat IPC: 0.749985 cumulative IPC: 0.37806 (Simulation time: 1 hr 0 min 12 sec) 
Heartbeat CPU 0 instructions: 36000000 cycles: 72612917 heartbeat IPC: 0.446631 cumulative IPC: 0.380305 (Simulation time: 1 hr 1 min 35 sec) 
Heartbeat CPU 0 instructions: 37000002 cycles: 75202248 heartbeat IPC: 0.386201 cumulative IPC: 0.38052 (Simulation time: 1 hr 3 min 25 sec) 
Heartbeat CPU 0 instructions: 38000000 cycles: 78940956 heartbeat IPC: 0.267472 cumulative IPC: 0.374862 (Simulation time: 1 hr 5 min 31 sec) 
Heartbeat CPU 0 instructions: 39000001 cycles: 81081666 heartbeat IPC: 0.467135 cumulative IPC: 0.377433 (Simulation time: 1 hr 7 min 7 sec) 
Heartbeat CPU 0 instructions: 40000000 cycles: 84239359 heartbeat IPC: 0.316687 cumulative IPC: 0.375035 (Simulation time: 1 hr 9 min 6 sec) 
Heartbeat CPU 0 instructions: 41000000 cycles: 87319420 heartbeat IPC: 0.324669 cumulative IPC: 0.373167 (Simulation time: 1 hr 10 min 58 sec) 
Heartbeat CPU 0 instructions: 42000002 cycles: 88660106 heartbeat IPC: 0.745888 cumulative IPC: 0.379087 (Simulation time: 1 hr 12 min 9 sec) 
Heartbeat CPU 0 instructions: 43000001 cycles: 90483033 heartbeat IPC: 0.548568 cumulative IPC: 0.38267 (Simulation time: 1 hr 13 min 31 sec) 
Heartbeat CPU 0 instructions: 44000000 cycles: 93262159 heartbeat IPC: 0.359825 cumulative IPC: 0.381956 (Simulation time: 1 hr 15 min 18 sec) 
Heartbeat CPU 0 instructions: 45000003 cycles: 97187098 heartbeat IPC: 0.254782 cumulative IPC: 0.376586 (Simulation time: 1 hr 17 min 26 sec) 
Heartbeat CPU 0 instructions: 46000000 cycles: 100069566 heartbeat IPC: 0.346924 cumulative IPC: 0.375694 (Simulation time: 1 hr 19 min 19 sec) 
Heartbeat CPU 0 instructions: 47000001 cycles: 101831096 heartbeat IPC: 0.567689 cumulative IPC: 0.379159 (Simulation time: 1 hr 20 min 53 sec) 
Heartbeat CPU 0 instructions: 48000000 cycles: 105362302 heartbeat IPC: 0.283189 cumulative IPC: 0.375808 (Simulation time: 1 hr 22 min 51 sec) 
Heartbeat CPU 0 instructions: 49000000 cycles: 107964250 heartbeat IPC: 0.384327 cumulative IPC: 0.376022 (Simulation time: 1 hr 24 min 25 sec) 
Heartbeat CPU 0 instructions: 50000001 cycles: 109293648 heartbeat IPC: 0.752221 cumulative IPC: 0.380782 (Simulation time: 1 hr 25 min 32 sec) 
Heartbeat CPU 0 instructions: 51000000 cycles: 111847894 heartbeat IPC: 0.391505 cumulative IPC: 0.381037 (Simulation time: 1 hr 27 min 2 sec) 
Heartbeat CPU 0 instructions: 52000000 cycles: 114587502 heartbeat IPC: 0.365016 cumulative IPC: 0.380639 (Simulation time: 1 hr 29 min 1 sec) 
Heartbeat CPU 0 instructions: 53000000 cycles: 118088455 heartbeat IPC: 0.285637 cumulative IPC: 0.377718 (Simulation time: 1 hr 31 min 7 sec) 
Heartbeat CPU 0 instructions: 54000000 cycles: 120078582 heartbeat IPC: 0.502481 cumulative IPC: 0.379861 (Simulation time: 1 hr 32 min 38 sec) 
Heartbeat CPU 0 instructions: 55000000 cycles: 123484660 heartbeat IPC: 0.293593 cumulative IPC: 0.377397 (Simulation time: 1 hr 34 min 40 sec) 
Heartbeat CPU 0 instructions: 56000000 cycles: 126410464 heartbeat IPC: 0.341786 cumulative IPC: 0.376544 (Simulation time: 1 hr 36 min 15 sec) 
Heartbeat CPU 0 instructions: 57000003 cycles: 127747941 heartbeat IPC: 0.747679 cumulative IPC: 0.380563 (Simulation time: 1 hr 37 min 30 sec) 
Heartbeat CPU 0 instructions: 58000000 cycles: 129935258 heartbeat IPC: 0.45718 cumulative IPC: 0.381897 (Simulation time: 1 hr 39 min 8 sec) 
Heartbeat CPU 0 instructions: 59000001 cycles: 132507204 heartbeat IPC: 0.388811 cumulative IPC: 0.382035 (Simulation time: 1 hr 40 min 54 sec) 
Heartbeat CPU 0 instructions: 60000000 cycles: 136162752 heartbeat IPC: 0.273557 cumulative IPC: 0.379029 (Simulation time: 1 hr 43 min 4 sec) 
Heartbeat CPU 0 instructions: 61000000 cycles: 138474559 heartbeat IPC: 0.432562 cumulative IPC: 0.379951 (Simulation time: 1 hr 44 min 44 sec) 
Heartbeat CPU 0 instructions: 62000001 cycles: 141248882 heartbeat IPC: 0.360449 cumulative IPC: 0.379556 (Simulation time: 1 hr 46 min 40 sec) 
Heartbeat CPU 0 instructions: 63000001 cycles: 144719989 heartbeat IPC: 0.288093 cumulative IPC: 0.377296 (Simulation time: 1 hr 48 min 35 sec) 
Heartbeat CPU 0 instructions: 64000000 cycles: 146058191 heartbeat IPC: 0.747271 cumulative IPC: 0.380787 (Simulation time: 1 hr 49 min 39 sec) 
Heartbeat CPU 0 instructions: 65000000 cycles: 147599557 heartbeat IPC: 0.648775 cumulative IPC: 0.383669 (Simulation time: 1 hr 51 min 0 sec) 
Heartbeat CPU 0 instructions: 66000002 cycles: 150679393 heartbeat IPC: 0.324693 cumulative IPC: 0.382428 (Simulation time: 1 hr 52 min 39 sec) 
Heartbeat CPU 0 instructions: 67000000 cycles: 154280629 heartbeat IPC: 0.277682 cumulative IPC: 0.379914 (Simulation time: 1 hr 54 min 41 sec) 
Heartbeat CPU 0 instructions: 68000000 cycles: 160477269 heartbeat IPC: 0.161378 cumulative IPC: 0.371246 (Simulation time: 1 hr 56 min 57 sec) 
Heartbeat CPU 0 instructions: 69000001 cycles: 164961885 heartbeat IPC: 0.222985 cumulative IPC: 0.367109 (Simulation time: 1 hr 58 min 57 sec) 
Heartbeat CPU 0 instructions: 70000000 cycles: 169305417 heartbeat IPC: 0.230227 cumulative IPC: 0.363507 (Simulation time: 2 hr 1 min 7 sec) 
Heartbeat CPU 0 instructions: 71000002 cycles: 173811609 heartbeat IPC: 0.221917 cumulative IPC: 0.359744 (Simulation time: 2 hr 3 min 14 sec) 
Heartbeat CPU 0 instructions: 72000000 cycles: 177232716 heartbeat IPC: 0.292302 cumulative IPC: 0.358411 (Simulation time: 2 hr 5 min 1 sec) 
Heartbeat CPU 0 instructions: 73000000 cycles: 180602790 heartbeat IPC: 0.296729 cumulative IPC: 0.357232 (Simulation time: 2 hr 6 min 51 sec) 
Heartbeat CPU 0 instructions: 74000000 cycles: 184713360 heartbeat IPC: 0.243275 cumulative IPC: 0.354636 (Simulation time: 2 hr 8 min 31 sec) 
Heartbeat CPU 0 instructions: 75000002 cycles: 188659885 heartbeat IPC: 0.253388 cumulative IPC: 0.35247 (Simulation time: 2 hr 10 min 30 sec) 
Heartbeat CPU 0 instructions: 76000000 cycles: 191267619 heartbeat IPC: 0.383474 cumulative IPC: 0.352902 (Simulation time: 2 hr 12 min 2 sec) 
Heartbeat CPU 0 instructions: 77000000 cycles: 194998537 heartbeat IPC: 0.268031 cumulative IPC: 0.351242 (Simulation time: 2 hr 13 min 57 sec) 
Heartbeat CPU 0 instructions: 78000002 cycles: 197215731 heartbeat IPC: 0.451021 cumulative IPC: 0.352388 (Simulation time: 2 hr 15 min 38 sec) 
Heartbeat CPU 0 instructions: 79000003 cycles: 199079803 heartbeat IPC: 0.536461 cumulative IPC: 0.354149 (Simulation time: 2 hr 17 min 21 sec) 
Heartbeat CPU 0 instructions: 80000000 cycles: 200254031 heartbeat IPC: 0.851621 cumulative IPC: 0.35713 (Simulation time: 2 hr 18 min 33 sec) 
Heartbeat CPU 0 instructions: 81000003 cycles: 202564315 heartbeat IPC: 0.432849 cumulative IPC: 0.358012 (Simulation time: 2 hr 20 min 10 sec) 
Heartbeat CPU 0 instructions: 82000001 cycles: 205682276 heartbeat IPC: 0.320722 cumulative IPC: 0.357435 (Simulation time: 2 hr 22 min 5 sec) 
Heartbeat CPU 0 instructions: 83000002 cycles: 208619440 heartbeat IPC: 0.340465 cumulative IPC: 0.357191 (Simulation time: 2 hr 23 min 51 sec) 
Heartbeat CPU 0 instructions: 84000000 cycles: 210979798 heartbeat IPC: 0.423664 cumulative IPC: 0.35795 (Simulation time: 2 hr 25 min 31 sec) 
Heartbeat CPU 0 instructions: 85000000 cycles: 212556549 heartbeat IPC: 0.634216 cumulative IPC: 0.360041 (Simulation time: 2 hr 27 min 4 sec) 
Heartbeat CPU 0 instructions: 86000000 cycles: 217063462 heartbeat IPC: 0.221881 cumulative IPC: 0.357115 (Simulation time: 2 hr 29 min 16 sec) 
Heartbeat CPU 0 instructions: 87000000 cycles: 220018098 heartbeat IPC: 0.338451 cumulative IPC: 0.356859 (Simulation time: 2 hr 30 min 48 sec) 
Heartbeat CPU 0 instructions: 88000000 cycles: 221408832 heartbeat IPC: 0.719045 cumulative IPC: 0.359179 (Simulation time: 2 hr 31 min 39 sec) 
Heartbeat CPU 0 instructions: 89000003 cycles: 224130688 heartbeat IPC: 0.367397 cumulative IPC: 0.35928 (Simulation time: 2 hr 32 min 47 sec) 
Heartbeat CPU 0 instructions: 90000002 cycles: 227028421 heartbeat IPC: 0.345097 cumulative IPC: 0.359096 (Simulation time: 2 hr 34 min 0 sec) 
Heartbeat CPU 0 instructions: 91000001 cycles: 230548881 heartbeat IPC: 0.284054 cumulative IPC: 0.357929 (Simulation time: 2 hr 35 min 13 sec) 
Heartbeat CPU 0 instructions: 92000000 cycles: 232472105 heartbeat IPC: 0.51996 cumulative IPC: 0.359294 (Simulation time: 2 hr 36 min 13 sec) 
Heartbeat CPU 0 instructions: 93000000 cycles: 235903859 heartbeat IPC: 0.291396 cumulative IPC: 0.358288 (Simulation time: 2 hr 37 min 25 sec) 
Heartbeat CPU 0 instructions: 94000001 cycles: 238836117 heartbeat IPC: 0.341034 cumulative IPC: 0.358073 (Simulation time: 2 hr 38 min 22 sec) 
Heartbeat CPU 0 instructions: 95000003 cycles: 240183536 heartbeat IPC: 0.742161 cumulative IPC: 0.360266 (Simulation time: 2 hr 38 min 59 sec) 
Heartbeat CPU 0 instructions: 96000000 cycles: 242434261 heartbeat IPC: 0.4443 cumulative IPC: 0.36106 (Simulation time: 2 hr 39 min 44 sec) 
Heartbeat CPU 0 instructions: 97000002 cycles: 244901225 heartbeat IPC: 0.405357 cumulative IPC: 0.361514 (Simulation time: 2 hr 40 min 36 sec) 
Heartbeat CPU 0 instructions: 98000003 cycles: 249048921 heartbeat IPC: 0.241098 cumulative IPC: 0.359474 (Simulation time: 2 hr 41 min 40 sec) 
Heartbeat CPU 0 instructions: 99000000 cycles: 252082693 heartbeat IPC: 0.329622 cumulative IPC: 0.359109 (Simulation time: 2 hr 42 min 28 sec) 
Heartbeat CPU 0 instructions: 100000000 cycles: 253961181 heartbeat IPC: 0.532343 cumulative IPC: 0.360412 (Simulation time: 2 hr 43 min 15 sec) 
Heartbeat CPU 0 instructions: 101000001 cycles: 257967165 heartbeat IPC: 0.249627 cumulative IPC: 0.358663 (Simulation time: 2 hr 44 min 12 sec) 
Heartbeat CPU 0 instructions: 102000000 cycles: 259572741 heartbeat IPC: 0.622829 cumulative IPC: 0.360324 (Simulation time: 2 hr 44 min 42 sec) 
Heartbeat CPU 0 instructions: 103000001 cycles: 260901293 heartbeat IPC: 0.7527 cumulative IPC: 0.362355 (Simulation time: 2 hr 45 min 12 sec) 
Heartbeat CPU 0 instructions: 104000000 cycles: 264189050 heartbeat IPC: 0.304158 cumulative IPC: 0.361619 (Simulation time: 2 hr 45 min 55 sec) 
Heartbeat CPU 0 instructions: 105000001 cycles: 267505038 heartbeat IPC: 0.30157 cumulative IPC: 0.360862 (Simulation time: 2 hr 46 min 45 sec) 
Heartbeat CPU 0 instructions: 106000000 cycles: 270239899 heartbeat IPC: 0.365649 cumulative IPC: 0.360912 (Simulation time: 2 hr 47 min 26 sec) 
Heartbeat CPU 0 instructions: 107000000 cycles: 271983285 heartbeat IPC: 0.573596 cumulative IPC: 0.362296 (Simulation time: 2 hr 48 min 5 sec) 
Heartbeat CPU 0 instructions: 108000000 cycles: 275963086 heartbeat IPC: 0.251269 cumulative IPC: 0.36067 (Simulation time: 2 hr 48 min 55 sec) 
Heartbeat CPU 0 instructions: 109000000 cycles: 277881114 heartbeat IPC: 0.521369 cumulative IPC: 0.361797 (Simulation time: 2 hr 49 min 21 sec) 
Heartbeat CPU 0 instructions: 110000002 cycles: 279209679 heartbeat IPC: 0.752693 cumulative IPC: 0.363685 (Simulation time: 2 hr 49 min 43 sec) 
Finished CPU 0 instructions: 100000000 cycles: 274962897 cummulative IPC: 0.363685 (Simulation time: 2 hr 49 min 43 sec) 

ChampSim completed all CPUs

Region of Interest Statistics

CPU 0 cummulative IPC: 0.363685 instructions: 100000000 cycles: 274962897
LLC TOTAL     ACCESS:    8719035  HIT:    3992385  MISS:    4726650
LLC LOAD      ACCESS:    2239888  HIT:     918019  MISS:    1321869
LLC RFO       ACCESS:     764890  HIT:     330426  MISS:     434464
LLC PREFETCH  ACCESS:    3553763  HIT:    1318025  MISS:    2235738
LLC WRITEBACK ACCESS:    2160494  HIT:    1425915  MISS:     734579
