
*** ChampSim Multicore Out-of-Order Simulator ***

Warmup Instructions: 10000000
Simulation Instructions: 100000000
Configuration: 2
Number of CPUs: 1
LLC sets: 2048
LLC ways: 16
Off-chip DRAM Channels: 1 Width: 64-bit Data Rate: 1600 MT/s

CPU 0 runs /datasets/cs240c-wi22-a00-public/data/Assignment2-gz/sphinx3_1339B.trace.gz
CPU 0 L1D next line prefetcher
CPU 0 L2C IP-based stride prefetcher
config 2, num_core 1, llc_sets 2048
Heartbeat CPU 0 instructions: 1000000 cycles: 339022 heartbeat IPC: 2.94966 cumulative IPC: 2.94966 (Simulation time: 0 hr 1 min 22 sec) 
Heartbeat CPU 0 instructions: 2000001 cycles: 693431 heartbeat IPC: 2.8216 cumulative IPC: 2.88421 (Simulation time: 0 hr 2 min 44 sec) 
Heartbeat CPU 0 instructions: 3000000 cycles: 1084599 heartbeat IPC: 2.55644 cumulative IPC: 2.766 (Simulation time: 0 hr 4 min 13 sec) 
Heartbeat CPU 0 instructions: 4000000 cycles: 1529994 heartbeat IPC: 2.2452 cumulative IPC: 2.61439 (Simulation time: 0 hr 5 min 33 sec) 
Heartbeat CPU 0 instructions: 5000003 cycles: 1869014 heartbeat IPC: 2.94969 cumulative IPC: 2.67521 (Simulation time: 0 hr 6 min 51 sec) 
Heartbeat CPU 0 instructions: 6000002 cycles: 2253226 heartbeat IPC: 2.60273 cumulative IPC: 2.66285 (Simulation time: 0 hr 8 min 20 sec) 
Heartbeat CPU 0 instructions: 7000001 cycles: 2717055 heartbeat IPC: 2.15596 cumulative IPC: 2.57632 (Simulation time: 0 hr 9 min 41 sec) 
Heartbeat CPU 0 instructions: 8000000 cycles: 3055930 heartbeat IPC: 2.95094 cumulative IPC: 2.61786 (Simulation time: 0 hr 11 min 0 sec) 
Heartbeat CPU 0 instructions: 9000003 cycles: 3412577 heartbeat IPC: 2.8039 cumulative IPC: 2.6373 (Simulation time: 0 hr 12 min 16 sec) 
Heartbeat CPU 0 instructions: 10000001 cycles: 3799456 heartbeat IPC: 2.58478 cumulative IPC: 2.63196 (Simulation time: 0 hr 13 min 39 sec) 

Warmup complete CPU 0 instructions: 10000001 cycles: 3799456 (Simulation time: 0 hr 13 min 39 sec) 

Heartbeat CPU 0 instructions: 11000000 cycles: 4625146 heartbeat IPC: 1.21111 cumulative IPC: 1.21111 (Simulation time: 0 hr 15 min 5 sec) 
Heartbeat CPU 0 instructions: 12000000 cycles: 5270554 heartbeat IPC: 1.54941 cumulative IPC: 1.35953 (Simulation time: 0 hr 16 min 26 sec) 
Heartbeat CPU 0 instructions: 13000000 cycles: 6643564 heartbeat IPC: 0.728327 cumulative IPC: 1.05481 (Simulation time: 0 hr 18 min 0 sec) 
Heartbeat CPU 0 instructions: 14000000 cycles: 7548349 heartbeat IPC: 1.10523 cumulative IPC: 1.06698 (Simulation time: 0 hr 19 min 27 sec) 
Heartbeat CPU 0 instructions: 15000001 cycles: 8208476 heartbeat IPC: 1.51486 cumulative IPC: 1.13404 (Simulation time: 0 hr 20 min 47 sec) 
Heartbeat CPU 0 instructions: 16000000 cycles: 9214818 heartbeat IPC: 0.993697 cumulative IPC: 1.10796 (Simulation time: 0 hr 22 min 15 sec) 
Heartbeat CPU 0 instructions: 17000001 cycles: 10573949 heartbeat IPC: 0.735765 cumulative IPC: 1.03329 (Simulation time: 0 hr 23 min 44 sec) 
Heartbeat CPU 0 instructions: 18000003 cycles: 11645885 heartbeat IPC: 0.932893 cumulative IPC: 1.01957 (Simulation time: 0 hr 25 min 5 sec) 
Heartbeat CPU 0 instructions: 19000002 cycles: 12460209 heartbeat IPC: 1.22801 cumulative IPC: 1.03917 (Simulation time: 0 hr 26 min 22 sec) 
Heartbeat CPU 0 instructions: 20000000 cycles: 13103676 heartbeat IPC: 1.55408 cumulative IPC: 1.07478 (Simulation time: 0 hr 27 min 39 sec) 
Heartbeat CPU 0 instructions: 21000000 cycles: 14292730 heartbeat IPC: 0.841005 cumulative IPC: 1.04829 (Simulation time: 0 hr 29 min 7 sec) 
Heartbeat CPU 0 instructions: 22000000 cycles: 15304700 heartbeat IPC: 0.988172 cumulative IPC: 1.043 (Simulation time: 0 hr 30 min 25 sec) 
Heartbeat CPU 0 instructions: 23000003 cycles: 16019984 heartbeat IPC: 1.39805 cumulative IPC: 1.06378 (Simulation time: 0 hr 31 min 41 sec) 
Heartbeat CPU 0 instructions: 24000000 cycles: 16859770 heartbeat IPC: 1.19078 cumulative IPC: 1.07195 (Simulation time: 0 hr 32 min 58 sec) 
Heartbeat CPU 0 instructions: 25000001 cycles: 17822640 heartbeat IPC: 1.03856 cumulative IPC: 1.06966 (Simulation time: 0 hr 34 min 17 sec) 
Heartbeat CPU 0 instructions: 26000003 cycles: 18552343 heartbeat IPC: 1.37042 cumulative IPC: 1.08453 (Simulation time: 0 hr 35 min 39 sec) 
Heartbeat CPU 0 instructions: 27000002 cycles: 19244998 heartbeat IPC: 1.44372 cumulative IPC: 1.10064 (Simulation time: 0 hr 37 min 2 sec) 
Heartbeat CPU 0 instructions: 28000000 cycles: 20216819 heartbeat IPC: 1.02899 cumulative IPC: 1.0964 (Simulation time: 0 hr 38 min 28 sec) 
Heartbeat CPU 0 instructions: 29000003 cycles: 20974887 heartbeat IPC: 1.31915 cumulative IPC: 1.10623 (Simulation time: 0 hr 39 min 50 sec) 
Heartbeat CPU 0 instructions: 30000003 cycles: 21631239 heartbeat IPC: 1.52357 cumulative IPC: 1.12159 (Simulation time: 0 hr 41 min 11 sec) 
Heartbeat CPU 0 instructions: 31000002 cycles: 22565787 heartbeat IPC: 1.07003 cumulative IPC: 1.11903 (Simulation time: 0 hr 42 min 35 sec) 
Heartbeat CPU 0 instructions: 32000000 cycles: 23383450 heartbeat IPC: 1.223 cumulative IPC: 1.12337 (Simulation time: 0 hr 43 min 55 sec) 
Heartbeat CPU 0 instructions: 33000001 cycles: 24037305 heartbeat IPC: 1.52939 cumulative IPC: 1.13648 (Simulation time: 0 hr 45 min 18 sec) 
Heartbeat CPU 0 instructions: 34000001 cycles: 25432936 heartbeat IPC: 0.716522 cumulative IPC: 1.10939 (Simulation time: 0 hr 46 min 47 sec) 
Heartbeat CPU 0 instructions: 35000002 cycles: 26352140 heartbeat IPC: 1.0879 cumulative IPC: 1.10852 (Simulation time: 0 hr 48 min 6 sec) 
Heartbeat CPU 0 instructions: 36000000 cycles: 27083346 heartbeat IPC: 1.3676 cumulative IPC: 1.11665 (Simulation time: 0 hr 49 min 24 sec) 
Heartbeat CPU 0 instructions: 37000003 cycles: 28008649 heartbeat IPC: 1.08073 cumulative IPC: 1.11528 (Simulation time: 0 hr 50 min 42 sec) 
Heartbeat CPU 0 instructions: 38000000 cycles: 29194483 heartbeat IPC: 0.843286 cumulative IPC: 1.10258 (Simulation time: 0 hr 52 min 3 sec) 
Heartbeat CPU 0 instructions: 39000000 cycles: 30030606 heartbeat IPC: 1.196 cumulative IPC: 1.10556 (Simulation time: 0 hr 53 min 23 sec) 
Heartbeat CPU 0 instructions: 40000000 cycles: 30729595 heartbeat IPC: 1.43064 cumulative IPC: 1.11399 (Simulation time: 0 hr 54 min 43 sec) 
Heartbeat CPU 0 instructions: 41000000 cycles: 31964539 heartbeat IPC: 0.809753 cumulative IPC: 1.10065 (Simulation time: 0 hr 56 min 9 sec) 
Heartbeat CPU 0 instructions: 42000002 cycles: 32843218 heartbeat IPC: 1.13807 cumulative IPC: 1.10179 (Simulation time: 0 hr 57 min 29 sec) 
Heartbeat CPU 0 instructions: 43000000 cycles: 33576353 heartbeat IPC: 1.364 cumulative IPC: 1.10824 (Simulation time: 0 hr 58 min 46 sec) 
Heartbeat CPU 0 instructions: 44000000 cycles: 34575332 heartbeat IPC: 1.00102 cumulative IPC: 1.10476 (Simulation time: 1 hr 0 min 14 sec) 
Heartbeat CPU 0 instructions: 45000002 cycles: 35596250 heartbeat IPC: 0.979513 cumulative IPC: 1.10074 (Simulation time: 1 hr 1 min 39 sec) 
Heartbeat CPU 0 instructions: 46000003 cycles: 36359157 heartbeat IPC: 1.31078 cumulative IPC: 1.10566 (Simulation time: 1 hr 3 min 8 sec) 
Heartbeat CPU 0 instructions: 47000001 cycles: 37094620 heartbeat IPC: 1.35968 cumulative IPC: 1.11127 (Simulation time: 1 hr 4 min 27 sec) 
Heartbeat CPU 0 instructions: 48000000 cycles: 38100019 heartbeat IPC: 0.994629 cumulative IPC: 1.10785 (Simulation time: 1 hr 5 min 48 sec) 
Heartbeat CPU 0 instructions: 49000000 cycles: 38904745 heartbeat IPC: 1.24266 cumulative IPC: 1.11094 (Simulation time: 1 hr 7 min 11 sec) 
Heartbeat CPU 0 instructions: 50000003 cycles: 39606719 heartbeat IPC: 1.42456 cumulative IPC: 1.11709 (Simulation time: 1 hr 8 min 27 sec) 
Heartbeat CPU 0 instructions: 51000001 cycles: 40797937 heartbeat IPC: 0.839475 cumulative IPC: 1.10815 (Simulation time: 1 hr 9 min 55 sec) 
Heartbeat CPU 0 instructions: 52000000 cycles: 41624700 heartbeat IPC: 1.20954 cumulative IPC: 1.11037 (Simulation time: 1 hr 11 min 16 sec) 
Heartbeat CPU 0 instructions: 53000002 cycles: 42340790 heartbeat IPC: 1.39648 cumulative IPC: 1.11569 (Simulation time: 1 hr 12 min 41 sec) 
Heartbeat CPU 0 instructions: 54000003 cycles: 43449758 heartbeat IPC: 0.90174 cumulative IPC: 1.1097 (Simulation time: 1 hr 14 min 9 sec) 
Heartbeat CPU 0 instructions: 55000001 cycles: 44362568 heartbeat IPC: 1.09552 cumulative IPC: 1.10938 (Simulation time: 1 hr 15 min 38 sec) 
Heartbeat CPU 0 instructions: 56000000 cycles: 45122319 heartbeat IPC: 1.31622 cumulative IPC: 1.11319 (Simulation time: 1 hr 16 min 59 sec) 
Heartbeat CPU 0 instructions: 57000000 cycles: 46019781 heartbeat IPC: 1.11425 cumulative IPC: 1.11321 (Simulation time: 1 hr 18 min 30 sec) 
Heartbeat CPU 0 instructions: 58000000 cycles: 47116778 heartbeat IPC: 0.91158 cumulative IPC: 1.1081 (Simulation time: 1 hr 20 min 5 sec) 
Heartbeat CPU 0 instructions: 59000002 cycles: 47901203 heartbeat IPC: 1.27482 cumulative IPC: 1.11107 (Simulation time: 1 hr 21 min 39 sec) 
Heartbeat CPU 0 instructions: 60000000 cycles: 48633318 heartbeat IPC: 1.3659 cumulative IPC: 1.11523 (Simulation time: 1 hr 23 min 10 sec) 
Heartbeat CPU 0 instructions: 61000000 cycles: 49951185 heartbeat IPC: 0.758802 cumulative IPC: 1.10505 (Simulation time: 1 hr 24 min 48 sec) 
Heartbeat CPU 0 instructions: 62000002 cycles: 51092455 heartbeat IPC: 0.876219 cumulative IPC: 1.09953 (Simulation time: 1 hr 26 min 18 sec) 
Heartbeat CPU 0 instructions: 63000001 cycles: 51923630 heartbeat IPC: 1.20311 cumulative IPC: 1.10132 (Simulation time: 1 hr 27 min 52 sec) 
Heartbeat CPU 0 instructions: 64000000 cycles: 52670865 heartbeat IPC: 1.33827 cumulative IPC: 1.10494 (Simulation time: 1 hr 29 min 22 sec) 
Heartbeat CPU 0 instructions: 65000000 cycles: 53688759 heartbeat IPC: 0.982421 cumulative IPC: 1.10244 (Simulation time: 1 hr 30 min 58 sec) 
Heartbeat CPU 0 instructions: 66000001 cycles: 54675271 heartbeat IPC: 1.01367 cumulative IPC: 1.10072 (Simulation time: 1 hr 32 min 29 sec) 
Heartbeat CPU 0 instructions: 67000000 cycles: 55449514 heartbeat IPC: 1.29158 cumulative IPC: 1.10358 (Simulation time: 1 hr 33 min 58 sec) 
Heartbeat CPU 0 instructions: 68000000 cycles: 56251200 heartbeat IPC: 1.24737 cumulative IPC: 1.10578 (Simulation time: 1 hr 35 min 32 sec) 
Heartbeat CPU 0 instructions: 69000003 cycles: 57387010 heartbeat IPC: 0.880432 cumulative IPC: 1.101 (Simulation time: 1 hr 37 min 10 sec) 
Heartbeat CPU 0 instructions: 70000001 cycles: 58215732 heartbeat IPC: 1.20667 cumulative IPC: 1.10261 (Simulation time: 1 hr 38 min 39 sec) 
Heartbeat CPU 0 instructions: 71000001 cycles: 58945379 heartbeat IPC: 1.37053 cumulative IPC: 1.10616 (Simulation time: 1 hr 40 min 12 sec) 
Heartbeat CPU 0 instructions: 72000000 cycles: 60146179 heartbeat IPC: 0.832777 cumulative IPC: 1.10033 (Simulation time: 1 hr 42 min 2 sec) 
Heartbeat CPU 0 instructions: 73000001 cycles: 60982508 heartbeat IPC: 1.1957 cumulative IPC: 1.10172 (Simulation time: 1 hr 43 min 49 sec) 
Heartbeat CPU 0 instructions: 74000000 cycles: 61732213 heartbeat IPC: 1.33386 cumulative IPC: 1.10473 (Simulation time: 1 hr 45 min 37 sec) 
Heartbeat CPU 0 instructions: 75000003 cycles: 62785010 heartbeat IPC: 0.949854 cumulative IPC: 1.10196 (Simulation time: 1 hr 47 min 31 sec) 
Heartbeat CPU 0 instructions: 76000000 cycles: 63729576 heartbeat IPC: 1.05868 cumulative IPC: 1.10128 (Simulation time: 1 hr 49 min 20 sec) 
Heartbeat CPU 0 instructions: 77000002 cycles: 64506003 heartbeat IPC: 1.28795 cumulative IPC: 1.10367 (Simulation time: 1 hr 51 min 4 sec) 
Heartbeat CPU 0 instructions: 78000002 cycles: 65347550 heartbeat IPC: 1.18829 cumulative IPC: 1.10483 (Simulation time: 1 hr 52 min 53 sec) 
Heartbeat CPU 0 instructions: 79000001 cycles: 66432851 heartbeat IPC: 0.921402 cumulative IPC: 1.10165 (Simulation time: 1 hr 54 min 46 sec) 
Heartbeat CPU 0 instructions: 80000000 cycles: 67256860 heartbeat IPC: 1.21358 cumulative IPC: 1.1031 (Simulation time: 1 hr 56 min 14 sec) 
Heartbeat CPU 0 instructions: 81000003 cycles: 67991696 heartbeat IPC: 1.36085 cumulative IPC: 1.10605 (Simulation time: 1 hr 57 min 41 sec) 
Heartbeat CPU 0 instructions: 82000000 cycles: 69162421 heartbeat IPC: 0.854169 cumulative IPC: 1.10154 (Simulation time: 1 hr 59 min 14 sec) 
Heartbeat CPU 0 instructions: 83000001 cycles: 69999657 heartbeat IPC: 1.19441 cumulative IPC: 1.10272 (Simulation time: 2 hr 0 min 34 sec) 
Heartbeat CPU 0 instructions: 84000000 cycles: 70736664 heartbeat IPC: 1.35684 cumulative IPC: 1.10551 (Simulation time: 2 hr 1 min 55 sec) 
Heartbeat CPU 0 instructions: 85000002 cycles: 71856682 heartbeat IPC: 0.892845 cumulative IPC: 1.10201 (Simulation time: 2 hr 3 min 23 sec) 
Heartbeat CPU 0 instructions: 86000003 cycles: 72748670 heartbeat IPC: 1.12109 cumulative IPC: 1.10226 (Simulation time: 2 hr 4 min 46 sec) 
Heartbeat CPU 0 instructions: 87000001 cycles: 73506458 heartbeat IPC: 1.31963 cumulative IPC: 1.10462 (Simulation time: 2 hr 6 min 8 sec) 
Heartbeat CPU 0 instructions: 88000000 cycles: 74455792 heartbeat IPC: 1.05337 cumulative IPC: 1.10394 (Simulation time: 2 hr 7 min 29 sec) 
Heartbeat CPU 0 instructions: 89000000 cycles: 75478650 heartbeat IPC: 0.977653 cumulative IPC: 1.10213 (Simulation time: 2 hr 8 min 52 sec) 
Heartbeat CPU 0 instructions: 90000003 cycles: 76259357 heartbeat IPC: 1.28089 cumulative IPC: 1.10406 (Simulation time: 2 hr 10 min 17 sec) 
Heartbeat CPU 0 instructions: 91000000 cycles: 77016160 heartbeat IPC: 1.32134 cumulative IPC: 1.1063 (Simulation time: 2 hr 11 min 41 sec) 
Heartbeat CPU 0 instructions: 92000000 cycles: 78203191 heartbeat IPC: 0.842438 cumulative IPC: 1.1021 (Simulation time: 2 hr 13 min 3 sec) 
Heartbeat CPU 0 instructions: 93000001 cycles: 79025201 heartbeat IPC: 1.21653 cumulative IPC: 1.10335 (Simulation time: 2 hr 14 min 21 sec) 
Heartbeat CPU 0 instructions: 94000001 cycles: 79749190 heartbeat IPC: 1.38124 cumulative IPC: 1.10599 (Simulation time: 2 hr 15 min 37 sec) 
Heartbeat CPU 0 instructions: 95000002 cycles: 80947148 heartbeat IPC: 0.834755 cumulative IPC: 1.10178 (Simulation time: 2 hr 17 min 1 sec) 
Heartbeat CPU 0 instructions: 96000000 cycles: 81799581 heartbeat IPC: 1.17311 cumulative IPC: 1.10256 (Simulation time: 2 hr 18 min 18 sec) 
Heartbeat CPU 0 instructions: 97000002 cycles: 82554052 heartbeat IPC: 1.32543 cumulative IPC: 1.1047 (Simulation time: 2 hr 19 min 39 sec) 
Heartbeat CPU 0 instructions: 98000000 cycles: 83598606 heartbeat IPC: 0.957344 cumulative IPC: 1.10277 (Simulation time: 2 hr 21 min 3 sec) 
Heartbeat CPU 0 instructions: 99000003 cycles: 84707742 heartbeat IPC: 0.901605 cumulative IPC: 1.10001 (Simulation time: 2 hr 22 min 23 sec) 
Heartbeat CPU 0 instructions: 100000000 cycles: 85509881 heartbeat IPC: 1.24666 cumulative IPC: 1.10145 (Simulation time: 2 hr 23 min 41 sec) 
Heartbeat CPU 0 instructions: 101000000 cycles: 86263384 heartbeat IPC: 1.32713 cumulative IPC: 1.10351 (Simulation time: 2 hr 24 min 58 sec) 
Heartbeat CPU 0 instructions: 102000001 cycles: 87713809 heartbeat IPC: 0.689454 cumulative IPC: 1.09636 (Simulation time: 2 hr 26 min 22 sec) 
Heartbeat CPU 0 instructions: 103000000 cycles: 88965324 heartbeat IPC: 0.799031 cumulative IPC: 1.09199 (Simulation time: 2 hr 27 min 42 sec) 
Heartbeat CPU 0 instructions: 104000000 cycles: 89914507 heartbeat IPC: 1.05354 cumulative IPC: 1.09156 (Simulation time: 2 hr 28 min 53 sec) 
Heartbeat CPU 0 instructions: 105000003 cycles: 90711468 heartbeat IPC: 1.25477 cumulative IPC: 1.09306 (Simulation time: 2 hr 30 min 1 sec) 
Heartbeat CPU 0 instructions: 106000000 cycles: 91510955 heartbeat IPC: 1.2508 cumulative IPC: 1.0945 (Simulation time: 2 hr 31 min 12 sec) 
Heartbeat CPU 0 instructions: 107000001 cycles: 92957982 heartbeat IPC: 0.691073 cumulative IPC: 1.08795 (Simulation time: 2 hr 32 min 26 sec) 
Heartbeat CPU 0 instructions: 108000000 cycles: 93868741 heartbeat IPC: 1.09798 cumulative IPC: 1.08805 (Simulation time: 2 hr 33 min 31 sec) 
Heartbeat CPU 0 instructions: 109000000 cycles: 94658417 heartbeat IPC: 1.26634 cumulative IPC: 1.0896 (Simulation time: 2 hr 34 min 34 sec) 
Heartbeat CPU 0 instructions: 110000000 cycles: 95737818 heartbeat IPC: 0.92644 cumulative IPC: 1.08769 (Simulation time: 2 hr 35 min 33 sec) 
Finished CPU 0 instructions: 100000000 cycles: 91938364 cummulative IPC: 1.08769 (Simulation time: 2 hr 35 min 33 sec) 

ChampSim completed all CPUs

Region of Interest Statistics

CPU 0 cummulative IPC: 1.08769 instructions: 100000000 cycles: 91938364
LLC TOTAL     ACCESS:    1574096  HIT:     857109  MISS:     716987
LLC LOAD      ACCESS:     202308  HIT:     173449  MISS:      28859
LLC RFO       ACCESS:     111355  HIT:     105891  MISS:       5464
LLC PREFETCH  ACCESS:    1127275  HIT:     446439  MISS:     680836
LLC WRITEBACK ACCESS:     133158  HIT:     131330  MISS:       1828
