
*** ChampSim Multicore Out-of-Order Simulator ***

Warmup Instructions: 10000000
Simulation Instructions: 100000000
Configuration: 2
Number of CPUs: 1
LLC sets: 2048
LLC ways: 16
Off-chip DRAM Channels: 1 Width: 64-bit Data Rate: 1600 MT/s

CPU 0 runs /datasets/cs240c-wi22-a00-public/data/Assignment2-gz/bzip2_183B.trace.gz
CPU 0 L1D next line prefetcher
CPU 0 L2C IP-based stride prefetcher
config 2, num_core 1, llc_sets 2048
Heartbeat CPU 0 instructions: 1000000 cycles: 447952 heartbeat IPC: 2.23238 cumulative IPC: 2.23238 (Simulation time: 0 hr 1 min 47 sec) 
Heartbeat CPU 0 instructions: 2000001 cycles: 951224 heartbeat IPC: 1.987 cumulative IPC: 2.10256 (Simulation time: 0 hr 3 min 56 sec) 
Heartbeat CPU 0 instructions: 3000001 cycles: 1457880 heartbeat IPC: 1.97373 cumulative IPC: 2.05778 (Simulation time: 0 hr 5 min 44 sec) 
Heartbeat CPU 0 instructions: 4000000 cycles: 1928522 heartbeat IPC: 2.12476 cumulative IPC: 2.07413 (Simulation time: 0 hr 7 min 25 sec) 
Heartbeat CPU 0 instructions: 5000000 cycles: 2425810 heartbeat IPC: 2.01091 cumulative IPC: 2.06117 (Simulation time: 0 hr 9 min 16 sec) 
Heartbeat CPU 0 instructions: 6000001 cycles: 2887390 heartbeat IPC: 2.16647 cumulative IPC: 2.078 (Simulation time: 0 hr 11 min 16 sec) 
Heartbeat CPU 0 instructions: 7000002 cycles: 3343252 heartbeat IPC: 2.19365 cumulative IPC: 2.09377 (Simulation time: 0 hr 13 min 12 sec) 
Heartbeat CPU 0 instructions: 8000000 cycles: 3812795 heartbeat IPC: 2.12973 cumulative IPC: 2.0982 (Simulation time: 0 hr 14 min 55 sec) 
Heartbeat CPU 0 instructions: 9000003 cycles: 4278066 heartbeat IPC: 2.14929 cumulative IPC: 2.10375 (Simulation time: 0 hr 16 min 43 sec) 
Heartbeat CPU 0 instructions: 10000000 cycles: 4746532 heartbeat IPC: 2.13462 cumulative IPC: 2.1068 (Simulation time: 0 hr 18 min 40 sec) 

Warmup complete CPU 0 instructions: 10000001 cycles: 4746533 (Simulation time: 0 hr 18 min 40 sec) 

Heartbeat CPU 0 instructions: 11000000 cycles: 6252172 heartbeat IPC: 0.664169 cumulative IPC: 0.664169 (Simulation time: 0 hr 20 min 25 sec) 
Heartbeat CPU 0 instructions: 12000000 cycles: 7697324 heartbeat IPC: 0.691969 cumulative IPC: 0.677784 (Simulation time: 0 hr 22 min 6 sec) 
Heartbeat CPU 0 instructions: 13000000 cycles: 8903520 heartbeat IPC: 0.829053 cumulative IPC: 0.721676 (Simulation time: 0 hr 24 min 0 sec) 
Heartbeat CPU 0 instructions: 14000003 cycles: 9942745 heartbeat IPC: 0.962258 cumulative IPC: 0.769792 (Simulation time: 0 hr 25 min 43 sec) 
Heartbeat CPU 0 instructions: 15000000 cycles: 11318201 heartbeat IPC: 0.727029 cumulative IPC: 0.760842 (Simulation time: 0 hr 27 min 33 sec) 
Heartbeat CPU 0 instructions: 16000000 cycles: 12297710 heartbeat IPC: 1.02092 cumulative IPC: 0.794578 (Simulation time: 0 hr 29 min 27 sec) 
Heartbeat CPU 0 instructions: 17000003 cycles: 13199474 heartbeat IPC: 1.10894 cumulative IPC: 0.828114 (Simulation time: 0 hr 31 min 18 sec) 
Heartbeat CPU 0 instructions: 18000001 cycles: 14122083 heartbeat IPC: 1.08388 cumulative IPC: 0.853283 (Simulation time: 0 hr 33 min 8 sec) 
Heartbeat CPU 0 instructions: 19000002 cycles: 15071295 heartbeat IPC: 1.05351 cumulative IPC: 0.871691 (Simulation time: 0 hr 35 min 2 sec) 
Heartbeat CPU 0 instructions: 20000000 cycles: 16269939 heartbeat IPC: 0.834274 cumulative IPC: 0.867799 (Simulation time: 0 hr 36 min 50 sec) 
Heartbeat CPU 0 instructions: 21000000 cycles: 17764914 heartbeat IPC: 0.668908 cumulative IPC: 0.844959 (Simulation time: 0 hr 38 min 44 sec) 
Heartbeat CPU 0 instructions: 22000000 cycles: 19178979 heartbeat IPC: 0.707181 cumulative IPC: 0.83146 (Simulation time: 0 hr 40 min 37 sec) 
Heartbeat CPU 0 instructions: 23000000 cycles: 20320024 heartbeat IPC: 0.87639 cumulative IPC: 0.834752 (Simulation time: 0 hr 42 min 40 sec) 
Heartbeat CPU 0 instructions: 24000000 cycles: 21577064 heartbeat IPC: 0.79552 cumulative IPC: 0.831822 (Simulation time: 0 hr 44 min 25 sec) 
Heartbeat CPU 0 instructions: 25000001 cycles: 22928334 heartbeat IPC: 0.740045 cumulative IPC: 0.825001 (Simulation time: 0 hr 46 min 22 sec) 
Heartbeat CPU 0 instructions: 26000002 cycles: 23910670 heartbeat IPC: 1.01798 cumulative IPC: 0.834893 (Simulation time: 0 hr 48 min 6 sec) 
Heartbeat CPU 0 instructions: 27000000 cycles: 24916460 heartbeat IPC: 0.994241 cumulative IPC: 0.842839 (Simulation time: 0 hr 50 min 2 sec) 
Heartbeat CPU 0 instructions: 28000000 cycles: 26213057 heartbeat IPC: 0.77125 cumulative IPC: 0.838515 (Simulation time: 0 hr 51 min 44 sec) 
Heartbeat CPU 0 instructions: 29000003 cycles: 27286506 heartbeat IPC: 0.931579 cumulative IPC: 0.842947 (Simulation time: 0 hr 53 min 22 sec) 
Heartbeat CPU 0 instructions: 30000000 cycles: 28610266 heartbeat IPC: 0.755422 cumulative IPC: 0.838092 (Simulation time: 0 hr 55 min 8 sec) 
Heartbeat CPU 0 instructions: 31000000 cycles: 29904894 heartbeat IPC: 0.772423 cumulative IPC: 0.834713 (Simulation time: 0 hr 56 min 51 sec) 
Heartbeat CPU 0 instructions: 32000000 cycles: 31526606 heartbeat IPC: 0.616632 cumulative IPC: 0.821506 (Simulation time: 0 hr 58 min 32 sec) 
Heartbeat CPU 0 instructions: 33000000 cycles: 32591856 heartbeat IPC: 0.938747 cumulative IPC: 0.825991 (Simulation time: 1 hr 0 min 26 sec) 
Heartbeat CPU 0 instructions: 34000001 cycles: 33598775 heartbeat IPC: 0.99313 cumulative IPC: 0.831824 (Simulation time: 1 hr 2 min 5 sec) 
Heartbeat CPU 0 instructions: 35000003 cycles: 34614968 heartbeat IPC: 0.984067 cumulative IPC: 0.837004 (Simulation time: 1 hr 3 min 46 sec) 
Heartbeat CPU 0 instructions: 36000000 cycles: 35625313 heartbeat IPC: 0.989758 cumulative IPC: 0.842002 (Simulation time: 1 hr 5 min 30 sec) 
Heartbeat CPU 0 instructions: 37000003 cycles: 36874965 heartbeat IPC: 0.800225 cumulative IPC: 0.840377 (Simulation time: 1 hr 7 min 22 sec) 
Heartbeat CPU 0 instructions: 38000001 cycles: 38401645 heartbeat IPC: 0.655015 cumulative IPC: 0.831969 (Simulation time: 1 hr 9 min 2 sec) 
Heartbeat CPU 0 instructions: 39000002 cycles: 39517841 heartbeat IPC: 0.895901 cumulative IPC: 0.834021 (Simulation time: 1 hr 10 min 44 sec) 
Heartbeat CPU 0 instructions: 40000000 cycles: 40552334 heartbeat IPC: 0.966655 cumulative IPC: 0.837853 (Simulation time: 1 hr 12 min 39 sec) 
Heartbeat CPU 0 instructions: 41000002 cycles: 42027773 heartbeat IPC: 0.677766 cumulative IPC: 0.831517 (Simulation time: 1 hr 14 min 22 sec) 
Heartbeat CPU 0 instructions: 42000000 cycles: 43317613 heartbeat IPC: 0.775288 cumulative IPC: 0.829637 (Simulation time: 1 hr 15 min 54 sec) 
Heartbeat CPU 0 instructions: 43000001 cycles: 44454910 heartbeat IPC: 0.879279 cumulative IPC: 0.831059 (Simulation time: 1 hr 17 min 42 sec) 
Heartbeat CPU 0 instructions: 44000000 cycles: 45609187 heartbeat IPC: 0.866342 cumulative IPC: 0.832056 (Simulation time: 1 hr 19 min 15 sec) 
Heartbeat CPU 0 instructions: 45000000 cycles: 46681908 heartbeat IPC: 0.932209 cumulative IPC: 0.834618 (Simulation time: 1 hr 21 min 4 sec) 
Heartbeat CPU 0 instructions: 46000000 cycles: 47797781 heartbeat IPC: 0.896159 cumulative IPC: 0.836213 (Simulation time: 1 hr 22 min 41 sec) 
Heartbeat CPU 0 instructions: 47000003 cycles: 48800843 heartbeat IPC: 0.99695 cumulative IPC: 0.839872 (Simulation time: 1 hr 24 min 10 sec) 
Heartbeat CPU 0 instructions: 48000000 cycles: 50388163 heartbeat IPC: 0.629991 cumulative IPC: 0.832573 (Simulation time: 1 hr 25 min 38 sec) 
Heartbeat CPU 0 instructions: 49000003 cycles: 51997221 heartbeat IPC: 0.621484 cumulative IPC: 0.825385 (Simulation time: 1 hr 27 min 3 sec) 
Heartbeat CPU 0 instructions: 50000000 cycles: 53130831 heartbeat IPC: 0.882135 cumulative IPC: 0.826714 (Simulation time: 1 hr 28 min 35 sec) 
Heartbeat CPU 0 instructions: 51000000 cycles: 54164086 heartbeat IPC: 0.967815 cumulative IPC: 0.829665 (Simulation time: 1 hr 30 min 0 sec) 
Heartbeat CPU 0 instructions: 52000000 cycles: 55188496 heartbeat IPC: 0.976172 cumulative IPC: 0.83264 (Simulation time: 1 hr 31 min 23 sec) 
Heartbeat CPU 0 instructions: 53000001 cycles: 56175068 heartbeat IPC: 1.01361 cumulative IPC: 0.836112 (Simulation time: 1 hr 32 min 54 sec) 
Heartbeat CPU 0 instructions: 54000001 cycles: 57186630 heartbeat IPC: 0.98857 cumulative IPC: 0.839053 (Simulation time: 1 hr 34 min 22 sec) 
Heartbeat CPU 0 instructions: 55000001 cycles: 58428614 heartbeat IPC: 0.805163 cumulative IPC: 0.838269 (Simulation time: 1 hr 35 min 59 sec) 
Heartbeat CPU 0 instructions: 56000000 cycles: 59615118 heartbeat IPC: 0.842811 cumulative IPC: 0.838367 (Simulation time: 1 hr 37 min 25 sec) 
Heartbeat CPU 0 instructions: 57000003 cycles: 61001049 heartbeat IPC: 0.721539 cumulative IPC: 0.835488 (Simulation time: 1 hr 38 min 55 sec) 
Heartbeat CPU 0 instructions: 58000001 cycles: 62581259 heartbeat IPC: 0.632826 cumulative IPC: 0.829951 (Simulation time: 1 hr 40 min 21 sec) 
Heartbeat CPU 0 instructions: 59000003 cycles: 63888299 heartbeat IPC: 0.765089 cumulative IPC: 0.828518 (Simulation time: 1 hr 41 min 50 sec) 
Heartbeat CPU 0 instructions: 60000000 cycles: 65463791 heartbeat IPC: 0.63472 cumulative IPC: 0.823489 (Simulation time: 1 hr 43 min 24 sec) 
Heartbeat CPU 0 instructions: 61000003 cycles: 67194649 heartbeat IPC: 0.57775 cumulative IPC: 0.816678 (Simulation time: 1 hr 44 min 59 sec) 
Heartbeat CPU 0 instructions: 62000002 cycles: 68741922 heartbeat IPC: 0.646298 cumulative IPC: 0.812559 (Simulation time: 1 hr 46 min 34 sec) 
Heartbeat CPU 0 instructions: 63000003 cycles: 70122933 heartbeat IPC: 0.724108 cumulative IPC: 0.81069 (Simulation time: 1 hr 48 min 7 sec) 
Heartbeat CPU 0 instructions: 64000000 cycles: 71695273 heartbeat IPC: 0.635993 cumulative IPC: 0.806587 (Simulation time: 1 hr 49 min 42 sec) 
Heartbeat CPU 0 instructions: 65000003 cycles: 72956892 heartbeat IPC: 0.792635 cumulative IPC: 0.806329 (Simulation time: 1 hr 51 min 23 sec) 
Heartbeat CPU 0 instructions: 66000000 cycles: 74282132 heartbeat IPC: 0.754578 cumulative IPC: 0.805343 (Simulation time: 1 hr 53 min 19 sec) 
Heartbeat CPU 0 instructions: 67000000 cycles: 75222445 heartbeat IPC: 1.06348 cumulative IPC: 0.808787 (Simulation time: 1 hr 54 min 55 sec) 
Heartbeat CPU 0 instructions: 68000000 cycles: 76629523 heartbeat IPC: 0.710693 cumulative IPC: 0.806867 (Simulation time: 1 hr 56 min 17 sec) 
Heartbeat CPU 0 instructions: 69000000 cycles: 78204722 heartbeat IPC: 0.63484 cumulative IPC: 0.803178 (Simulation time: 1 hr 57 min 39 sec) 
Heartbeat CPU 0 instructions: 70000002 cycles: 79677031 heartbeat IPC: 0.679207 cumulative IPC: 0.800742 (Simulation time: 1 hr 59 min 7 sec) 
Heartbeat CPU 0 instructions: 71000000 cycles: 81250157 heartbeat IPC: 0.635676 cumulative IPC: 0.797348 (Simulation time: 2 hr 0 min 26 sec) 
Heartbeat CPU 0 instructions: 72000000 cycles: 82620723 heartbeat IPC: 0.729626 cumulative IPC: 0.796156 (Simulation time: 2 hr 1 min 44 sec) 
Heartbeat CPU 0 instructions: 73000001 cycles: 83910289 heartbeat IPC: 0.775455 cumulative IPC: 0.795819 (Simulation time: 2 hr 3 min 2 sec) 
Heartbeat CPU 0 instructions: 74000000 cycles: 85070108 heartbeat IPC: 0.862203 cumulative IPC: 0.796777 (Simulation time: 2 hr 4 min 34 sec) 
Heartbeat CPU 0 instructions: 75000001 cycles: 86483978 heartbeat IPC: 0.707279 cumulative IPC: 0.795229 (Simulation time: 2 hr 5 min 49 sec) 
Heartbeat CPU 0 instructions: 76000000 cycles: 87624846 heartbeat IPC: 0.876525 cumulative IPC: 0.796348 (Simulation time: 2 hr 7 min 6 sec) 
Heartbeat CPU 0 instructions: 77000003 cycles: 88807664 heartbeat IPC: 0.845441 cumulative IPC: 0.797039 (Simulation time: 2 hr 8 min 23 sec) 
Heartbeat CPU 0 instructions: 78000000 cycles: 90146915 heartbeat IPC: 0.746684 cumulative IPC: 0.796249 (Simulation time: 2 hr 9 min 42 sec) 
Heartbeat CPU 0 instructions: 79000000 cycles: 91500140 heartbeat IPC: 0.738975 cumulative IPC: 0.795356 (Simulation time: 2 hr 11 min 2 sec) 
Heartbeat CPU 0 instructions: 80000000 cycles: 92891436 heartbeat IPC: 0.718754 cumulative IPC: 0.794147 (Simulation time: 2 hr 12 min 17 sec) 
Heartbeat CPU 0 instructions: 81000000 cycles: 94586966 heartbeat IPC: 0.589786 cumulative IPC: 0.79029 (Simulation time: 2 hr 13 min 29 sec) 
Heartbeat CPU 0 instructions: 82000002 cycles: 96137221 heartbeat IPC: 0.645056 cumulative IPC: 0.787826 (Simulation time: 2 hr 14 min 45 sec) 
Heartbeat CPU 0 instructions: 83000000 cycles: 97291454 heartbeat IPC: 0.866374 cumulative IPC: 0.788806 (Simulation time: 2 hr 16 min 4 sec) 
Heartbeat CPU 0 instructions: 84000000 cycles: 98248288 heartbeat IPC: 1.04511 cumulative IPC: 0.791429 (Simulation time: 2 hr 17 min 18 sec) 
Heartbeat CPU 0 instructions: 85000002 cycles: 99292871 heartbeat IPC: 0.957322 cumulative IPC: 0.793262 (Simulation time: 2 hr 18 min 30 sec) 
Heartbeat CPU 0 instructions: 86000002 cycles: 100269758 heartbeat IPC: 1.02366 cumulative IPC: 0.795618 (Simulation time: 2 hr 19 min 42 sec) 
Heartbeat CPU 0 instructions: 87000001 cycles: 101288644 heartbeat IPC: 0.981463 cumulative IPC: 0.797579 (Simulation time: 2 hr 21 min 2 sec) 
Heartbeat CPU 0 instructions: 88000000 cycles: 102586260 heartbeat IPC: 0.770643 cumulative IPC: 0.797222 (Simulation time: 2 hr 22 min 14 sec) 
Heartbeat CPU 0 instructions: 89000000 cycles: 104114966 heartbeat IPC: 0.654148 cumulative IPC: 0.795021 (Simulation time: 2 hr 23 min 38 sec) 
Heartbeat CPU 0 instructions: 90000002 cycles: 105617985 heartbeat IPC: 0.665329 cumulative IPC: 0.793089 (Simulation time: 2 hr 24 min 49 sec) 
Heartbeat CPU 0 instructions: 91000000 cycles: 107324057 heartbeat IPC: 0.586141 cumulative IPC: 0.789647 (Simulation time: 2 hr 25 min 55 sec) 
Heartbeat CPU 0 instructions: 92000000 cycles: 108821597 heartbeat IPC: 0.667762 cumulative IPC: 0.787893 (Simulation time: 2 hr 27 min 0 sec) 
Heartbeat CPU 0 instructions: 93000001 cycles: 110086453 heartbeat IPC: 0.790605 cumulative IPC: 0.787925 (Simulation time: 2 hr 28 min 14 sec) 
Heartbeat CPU 0 instructions: 94000000 cycles: 111841188 heartbeat IPC: 0.569886 cumulative IPC: 0.784353 (Simulation time: 2 hr 29 min 14 sec) 
Heartbeat CPU 0 instructions: 95000002 cycles: 113460623 heartbeat IPC: 0.617501 cumulative IPC: 0.781867 (Simulation time: 2 hr 30 min 14 sec) 
Heartbeat CPU 0 instructions: 96000000 cycles: 115068510 heartbeat IPC: 0.621933 cumulative IPC: 0.779536 (Simulation time: 2 hr 31 min 11 sec) 
Heartbeat CPU 0 instructions: 97000000 cycles: 116474414 heartbeat IPC: 0.711286 cumulative IPC: 0.778678 (Simulation time: 2 hr 32 min 9 sec) 
Heartbeat CPU 0 instructions: 98000000 cycles: 117755881 heartbeat IPC: 0.780356 cumulative IPC: 0.778697 (Simulation time: 2 hr 33 min 4 sec) 
Heartbeat CPU 0 instructions: 99000003 cycles: 118885030 heartbeat IPC: 0.885625 cumulative IPC: 0.779754 (Simulation time: 2 hr 34 min 8 sec) 
Heartbeat CPU 0 instructions: 100000000 cycles: 120375517 heartbeat IPC: 0.67092 cumulative IPC: 0.778352 (Simulation time: 2 hr 35 min 3 sec) 
Heartbeat CPU 0 instructions: 101000000 cycles: 121883976 heartbeat IPC: 0.662928 cumulative IPC: 0.776865 (Simulation time: 2 hr 35 min 59 sec) 
Heartbeat CPU 0 instructions: 102000001 cycles: 123582943 heartbeat IPC: 0.588594 cumulative IPC: 0.774173 (Simulation time: 2 hr 36 min 55 sec) 
Heartbeat CPU 0 instructions: 103000002 cycles: 124901991 heartbeat IPC: 0.758123 cumulative IPC: 0.773997 (Simulation time: 2 hr 37 min 55 sec) 
Heartbeat CPU 0 instructions: 104000000 cycles: 126622672 heartbeat IPC: 0.581164 cumulative IPC: 0.771275 (Simulation time: 2 hr 38 min 48 sec) 
Heartbeat CPU 0 instructions: 105000002 cycles: 127597845 heartbeat IPC: 1.02546 cumulative IPC: 0.773293 (Simulation time: 2 hr 39 min 40 sec) 
Heartbeat CPU 0 instructions: 106000000 cycles: 129142998 heartbeat IPC: 0.647184 cumulative IPC: 0.771726 (Simulation time: 2 hr 40 min 29 sec) 
Heartbeat CPU 0 instructions: 107000002 cycles: 130715023 heartbeat IPC: 0.636123 cumulative IPC: 0.770034 (Simulation time: 2 hr 41 min 15 sec) 
Heartbeat CPU 0 instructions: 108000000 cycles: 132050154 heartbeat IPC: 0.748989 cumulative IPC: 0.769813 (Simulation time: 2 hr 42 min 7 sec) 
Heartbeat CPU 0 instructions: 109000002 cycles: 133758641 heartbeat IPC: 0.585314 cumulative IPC: 0.76737 (Simulation time: 2 hr 42 min 46 sec) 
Heartbeat CPU 0 instructions: 110000000 cycles: 134988621 heartbeat IPC: 0.81302 cumulative IPC: 0.767801 (Simulation time: 2 hr 43 min 24 sec) 
Finished CPU 0 instructions: 100000003 cycles: 130242089 cummulative IPC: 0.767801 (Simulation time: 2 hr 43 min 24 sec) 

ChampSim completed all CPUs

Region of Interest Statistics

CPU 0 cummulative IPC: 0.767801 instructions: 100000003 cycles: 130242089
LLC TOTAL     ACCESS:    1571280  HIT:    1398382  MISS:     172898
LLC LOAD      ACCESS:     429733  HIT:     403112  MISS:      26621
LLC RFO       ACCESS:     294160  HIT:     237059  MISS:      57101
LLC PREFETCH  ACCESS:     521414  HIT:     455114  MISS:      66300
LLC WRITEBACK ACCESS:     325973  HIT:     303097  MISS:      22876
