
*** ChampSim Multicore Out-of-Order Simulator ***

Warmup Instructions: 10000000
Simulation Instructions: 100000000
Configuration: 2
Number of CPUs: 1
LLC sets: 2048
LLC ways: 16
Off-chip DRAM Channels: 1 Width: 64-bit Data Rate: 1600 MT/s

CPU 0 runs /datasets/cs240c-wi22-a00-public/data/Assignment2-gz/sphinx3_2520B.trace.gz
CPU 0 L1D next line prefetcher
CPU 0 L2C IP-based stride prefetcher
config 2, num_core 1, llc_sets 2048
Heartbeat CPU 0 instructions: 1000003 cycles: 338965 heartbeat IPC: 2.95017 cumulative IPC: 2.95017 (Simulation time: 0 hr 1 min 14 sec) 
Heartbeat CPU 0 instructions: 2000000 cycles: 737255 heartbeat IPC: 2.51073 cumulative IPC: 2.71277 (Simulation time: 0 hr 2 min 37 sec) 
Heartbeat CPU 0 instructions: 3000003 cycles: 1185139 heartbeat IPC: 2.23273 cumulative IPC: 2.53135 (Simulation time: 0 hr 3 min 52 sec) 
Heartbeat CPU 0 instructions: 4000000 cycles: 1524177 heartbeat IPC: 2.94951 cumulative IPC: 2.62437 (Simulation time: 0 hr 5 min 5 sec) 
Heartbeat CPU 0 instructions: 5000001 cycles: 1902514 heartbeat IPC: 2.64315 cumulative IPC: 2.6281 (Simulation time: 0 hr 6 min 25 sec) 
Heartbeat CPU 0 instructions: 6000001 cycles: 2368091 heartbeat IPC: 2.14787 cumulative IPC: 2.53369 (Simulation time: 0 hr 7 min 50 sec) 
Heartbeat CPU 0 instructions: 7000001 cycles: 2707031 heartbeat IPC: 2.95037 cumulative IPC: 2.58586 (Simulation time: 0 hr 9 min 5 sec) 
Heartbeat CPU 0 instructions: 8000000 cycles: 3056049 heartbeat IPC: 2.86518 cumulative IPC: 2.61776 (Simulation time: 0 hr 10 min 21 sec) 
Heartbeat CPU 0 instructions: 9000000 cycles: 3509571 heartbeat IPC: 2.20496 cumulative IPC: 2.56442 (Simulation time: 0 hr 11 min 31 sec) 
Heartbeat CPU 0 instructions: 10000000 cycles: 3859712 heartbeat IPC: 2.85599 cumulative IPC: 2.59087 (Simulation time: 0 hr 12 min 42 sec) 

Warmup complete CPU 0 instructions: 10000004 cycles: 3859713 (Simulation time: 0 hr 12 min 42 sec) 

Heartbeat CPU 0 instructions: 11000000 cycles: 4612548 heartbeat IPC: 1.32831 cumulative IPC: 1.32831 (Simulation time: 0 hr 14 min 3 sec) 
Heartbeat CPU 0 instructions: 12000000 cycles: 5577756 heartbeat IPC: 1.03605 cumulative IPC: 1.16411 (Simulation time: 0 hr 15 min 22 sec) 
Heartbeat CPU 0 instructions: 13000002 cycles: 6190757 heartbeat IPC: 1.63132 cumulative IPC: 1.28698 (Simulation time: 0 hr 16 min 37 sec) 
Heartbeat CPU 0 instructions: 14000002 cycles: 6900495 heartbeat IPC: 1.40897 cumulative IPC: 1.31545 (Simulation time: 0 hr 17 min 54 sec) 
Heartbeat CPU 0 instructions: 15000003 cycles: 7848047 heartbeat IPC: 1.05535 cumulative IPC: 1.25366 (Simulation time: 0 hr 19 min 12 sec) 
Heartbeat CPU 0 instructions: 16000000 cycles: 8453514 heartbeat IPC: 1.65161 cumulative IPC: 1.30611 (Simulation time: 0 hr 20 min 29 sec) 
Heartbeat CPU 0 instructions: 17000000 cycles: 9139582 heartbeat IPC: 1.45758 cumulative IPC: 1.32579 (Simulation time: 0 hr 21 min 49 sec) 
Heartbeat CPU 0 instructions: 18000002 cycles: 10059053 heartbeat IPC: 1.08758 cumulative IPC: 1.29046 (Simulation time: 0 hr 23 min 8 sec) 
Heartbeat CPU 0 instructions: 19000001 cycles: 10676620 heartbeat IPC: 1.61926 cumulative IPC: 1.32025 (Simulation time: 0 hr 24 min 23 sec) 
Heartbeat CPU 0 instructions: 20000000 cycles: 11370539 heartbeat IPC: 1.44109 cumulative IPC: 1.33141 (Simulation time: 0 hr 25 min 40 sec) 
Heartbeat CPU 0 instructions: 21000001 cycles: 12558015 heartbeat IPC: 0.842123 cumulative IPC: 1.26461 (Simulation time: 0 hr 27 min 4 sec) 
Heartbeat CPU 0 instructions: 22000002 cycles: 13548305 heartbeat IPC: 1.00981 cumulative IPC: 1.23857 (Simulation time: 0 hr 28 min 23 sec) 
Heartbeat CPU 0 instructions: 23000000 cycles: 14193764 heartbeat IPC: 1.54928 cumulative IPC: 1.25798 (Simulation time: 0 hr 29 min 41 sec) 
Heartbeat CPU 0 instructions: 24000000 cycles: 14855091 heartbeat IPC: 1.51211 cumulative IPC: 1.27326 (Simulation time: 0 hr 30 min 53 sec) 
Heartbeat CPU 0 instructions: 25000003 cycles: 15723863 heartbeat IPC: 1.15105 cumulative IPC: 1.26431 (Simulation time: 0 hr 32 min 17 sec) 
Heartbeat CPU 0 instructions: 26000001 cycles: 16356372 heartbeat IPC: 1.581 cumulative IPC: 1.28034 (Simulation time: 0 hr 33 min 30 sec) 
Heartbeat CPU 0 instructions: 27000002 cycles: 17042584 heartbeat IPC: 1.45728 cumulative IPC: 1.28955 (Simulation time: 0 hr 34 min 49 sec) 
Heartbeat CPU 0 instructions: 28000000 cycles: 17916808 heartbeat IPC: 1.14387 cumulative IPC: 1.28049 (Simulation time: 0 hr 36 min 4 sec) 
Heartbeat CPU 0 instructions: 29000003 cycles: 18546387 heartbeat IPC: 1.58837 cumulative IPC: 1.29369 (Simulation time: 0 hr 37 min 23 sec) 
Heartbeat CPU 0 instructions: 30000003 cycles: 19240490 heartbeat IPC: 1.44071 cumulative IPC: 1.30032 (Simulation time: 0 hr 38 min 33 sec) 
Heartbeat CPU 0 instructions: 31000001 cycles: 20099574 heartbeat IPC: 1.16403 cumulative IPC: 1.29311 (Simulation time: 0 hr 39 min 51 sec) 
Heartbeat CPU 0 instructions: 32000000 cycles: 20715722 heartbeat IPC: 1.62299 cumulative IPC: 1.30517 (Simulation time: 0 hr 41 min 4 sec) 
Heartbeat CPU 0 instructions: 33000000 cycles: 21405890 heartbeat IPC: 1.44892 cumulative IPC: 1.31083 (Simulation time: 0 hr 42 min 20 sec) 
Heartbeat CPU 0 instructions: 34000000 cycles: 22252526 heartbeat IPC: 1.18115 cumulative IPC: 1.30486 (Simulation time: 0 hr 43 min 40 sec) 
Heartbeat CPU 0 instructions: 35000002 cycles: 22868156 heartbeat IPC: 1.62436 cumulative IPC: 1.3152 (Simulation time: 0 hr 44 min 56 sec) 
Heartbeat CPU 0 instructions: 36000000 cycles: 23566441 heartbeat IPC: 1.43208 cumulative IPC: 1.31935 (Simulation time: 0 hr 46 min 12 sec) 
Heartbeat CPU 0 instructions: 37000000 cycles: 24429911 heartbeat IPC: 1.15812 cumulative IPC: 1.31258 (Simulation time: 0 hr 47 min 30 sec) 
Heartbeat CPU 0 instructions: 38000000 cycles: 25044559 heartbeat IPC: 1.62695 cumulative IPC: 1.3217 (Simulation time: 0 hr 48 min 40 sec) 
Heartbeat CPU 0 instructions: 39000000 cycles: 25784689 heartbeat IPC: 1.35111 cumulative IPC: 1.32269 (Simulation time: 0 hr 50 min 0 sec) 
Heartbeat CPU 0 instructions: 40000000 cycles: 26659521 heartbeat IPC: 1.14308 cumulative IPC: 1.3158 (Simulation time: 0 hr 51 min 12 sec) 
Heartbeat CPU 0 instructions: 41000001 cycles: 27261589 heartbeat IPC: 1.66094 cumulative IPC: 1.32468 (Simulation time: 0 hr 52 min 24 sec) 
Heartbeat CPU 0 instructions: 42000002 cycles: 27995760 heartbeat IPC: 1.36208 cumulative IPC: 1.32582 (Simulation time: 0 hr 53 min 47 sec) 
Heartbeat CPU 0 instructions: 43000001 cycles: 28823490 heartbeat IPC: 1.20812 cumulative IPC: 1.32192 (Simulation time: 0 hr 55 min 6 sec) 
Heartbeat CPU 0 instructions: 44000000 cycles: 29440200 heartbeat IPC: 1.62151 cumulative IPC: 1.32914 (Simulation time: 0 hr 56 min 21 sec) 
Heartbeat CPU 0 instructions: 45000001 cycles: 30183611 heartbeat IPC: 1.34515 cumulative IPC: 1.32959 (Simulation time: 0 hr 57 min 36 sec) 
Heartbeat CPU 0 instructions: 46000001 cycles: 31025949 heartbeat IPC: 1.18717 cumulative IPC: 1.32517 (Simulation time: 0 hr 58 min 54 sec) 
Heartbeat CPU 0 instructions: 47000001 cycles: 31642094 heartbeat IPC: 1.62299 cumulative IPC: 1.33178 (Simulation time: 1 hr 0 min 11 sec) 
Heartbeat CPU 0 instructions: 48000000 cycles: 32391832 heartbeat IPC: 1.3338 cumulative IPC: 1.33183 (Simulation time: 1 hr 1 min 23 sec) 
Heartbeat CPU 0 instructions: 49000001 cycles: 33186842 heartbeat IPC: 1.25785 cumulative IPC: 1.32983 (Simulation time: 1 hr 2 min 39 sec) 
Heartbeat CPU 0 instructions: 50000003 cycles: 33809832 heartbeat IPC: 1.60517 cumulative IPC: 1.33555 (Simulation time: 1 hr 3 min 54 sec) 
Heartbeat CPU 0 instructions: 51000001 cycles: 34574206 heartbeat IPC: 1.30826 cumulative IPC: 1.33487 (Simulation time: 1 hr 5 min 12 sec) 
Heartbeat CPU 0 instructions: 52000000 cycles: 35351220 heartbeat IPC: 1.28698 cumulative IPC: 1.33369 (Simulation time: 1 hr 6 min 32 sec) 
Heartbeat CPU 0 instructions: 53000003 cycles: 35982063 heartbeat IPC: 1.58519 cumulative IPC: 1.33863 (Simulation time: 1 hr 7 min 48 sec) 
Heartbeat CPU 0 instructions: 54000001 cycles: 36734435 heartbeat IPC: 1.32913 cumulative IPC: 1.33841 (Simulation time: 1 hr 9 min 6 sec) 
Heartbeat CPU 0 instructions: 55000002 cycles: 37471419 heartbeat IPC: 1.35688 cumulative IPC: 1.33882 (Simulation time: 1 hr 10 min 26 sec) 
Heartbeat CPU 0 instructions: 56000000 cycles: 38103641 heartbeat IPC: 1.58172 cumulative IPC: 1.3433 (Simulation time: 1 hr 11 min 41 sec) 
Heartbeat CPU 0 instructions: 57000000 cycles: 38975587 heartbeat IPC: 1.14686 cumulative IPC: 1.33843 (Simulation time: 1 hr 13 min 4 sec) 
Heartbeat CPU 0 instructions: 58000002 cycles: 40105617 heartbeat IPC: 0.884934 cumulative IPC: 1.32429 (Simulation time: 1 hr 14 min 32 sec) 
Heartbeat CPU 0 instructions: 59000001 cycles: 40936684 heartbeat IPC: 1.20327 cumulative IPC: 1.32157 (Simulation time: 1 hr 15 min 46 sec) 
Heartbeat CPU 0 instructions: 60000000 cycles: 41556626 heartbeat IPC: 1.61305 cumulative IPC: 1.32637 (Simulation time: 1 hr 17 min 1 sec) 
Heartbeat CPU 0 instructions: 61000001 cycles: 42276055 heartbeat IPC: 1.38999 cumulative IPC: 1.32756 (Simulation time: 1 hr 18 min 16 sec) 
Heartbeat CPU 0 instructions: 62000000 cycles: 43058339 heartbeat IPC: 1.27831 cumulative IPC: 1.32658 (Simulation time: 1 hr 19 min 35 sec) 
Heartbeat CPU 0 instructions: 63000002 cycles: 43690870 heartbeat IPC: 1.58095 cumulative IPC: 1.33062 (Simulation time: 1 hr 20 min 50 sec) 
Heartbeat CPU 0 instructions: 64000000 cycles: 44447086 heartbeat IPC: 1.32237 cumulative IPC: 1.33046 (Simulation time: 1 hr 22 min 7 sec) 
Heartbeat CPU 0 instructions: 65000001 cycles: 45200589 heartbeat IPC: 1.32714 cumulative IPC: 1.3304 (Simulation time: 1 hr 23 min 24 sec) 
Heartbeat CPU 0 instructions: 66000003 cycles: 45837352 heartbeat IPC: 1.57045 cumulative IPC: 1.33404 (Simulation time: 1 hr 24 min 45 sec) 
Heartbeat CPU 0 instructions: 67000003 cycles: 46639834 heartbeat IPC: 1.24613 cumulative IPC: 1.33239 (Simulation time: 1 hr 26 min 1 sec) 
Heartbeat CPU 0 instructions: 68000000 cycles: 47380034 heartbeat IPC: 1.35098 cumulative IPC: 1.33271 (Simulation time: 1 hr 27 min 21 sec) 
Heartbeat CPU 0 instructions: 69000003 cycles: 48029398 heartbeat IPC: 1.53997 cumulative IPC: 1.33576 (Simulation time: 1 hr 28 min 36 sec) 
Heartbeat CPU 0 instructions: 70000000 cycles: 48831012 heartbeat IPC: 1.24748 cumulative IPC: 1.33418 (Simulation time: 1 hr 30 min 1 sec) 
Heartbeat CPU 0 instructions: 71000000 cycles: 49560754 heartbeat IPC: 1.37035 cumulative IPC: 1.33476 (Simulation time: 1 hr 31 min 26 sec) 
Heartbeat CPU 0 instructions: 72000000 cycles: 50222550 heartbeat IPC: 1.51104 cumulative IPC: 1.33728 (Simulation time: 1 hr 32 min 47 sec) 
Heartbeat CPU 0 instructions: 73000003 cycles: 51022618 heartbeat IPC: 1.2499 cumulative IPC: 1.3358 (Simulation time: 1 hr 34 min 10 sec) 
Heartbeat CPU 0 instructions: 74000003 cycles: 51732074 heartbeat IPC: 1.40953 cumulative IPC: 1.33689 (Simulation time: 1 hr 35 min 33 sec) 
Heartbeat CPU 0 instructions: 75000003 cycles: 52391857 heartbeat IPC: 1.51565 cumulative IPC: 1.33932 (Simulation time: 1 hr 37 min 3 sec) 
Heartbeat CPU 0 instructions: 76000000 cycles: 53193039 heartbeat IPC: 1.24815 cumulative IPC: 1.33784 (Simulation time: 1 hr 38 min 25 sec) 
Heartbeat CPU 0 instructions: 77000003 cycles: 53916225 heartbeat IPC: 1.38277 cumulative IPC: 1.33849 (Simulation time: 1 hr 39 min 48 sec) 
Heartbeat CPU 0 instructions: 78000000 cycles: 54598680 heartbeat IPC: 1.46529 cumulative IPC: 1.34019 (Simulation time: 1 hr 41 min 16 sec) 
Heartbeat CPU 0 instructions: 79000003 cycles: 55409849 heartbeat IPC: 1.23279 cumulative IPC: 1.3385 (Simulation time: 1 hr 42 min 42 sec) 
Heartbeat CPU 0 instructions: 80000000 cycles: 56108324 heartbeat IPC: 1.43169 cumulative IPC: 1.33975 (Simulation time: 1 hr 44 min 0 sec) 
Heartbeat CPU 0 instructions: 81000001 cycles: 56802185 heartbeat IPC: 1.44121 cumulative IPC: 1.34108 (Simulation time: 1 hr 45 min 17 sec) 
Heartbeat CPU 0 instructions: 82000002 cycles: 57624537 heartbeat IPC: 1.21603 cumulative IPC: 1.33917 (Simulation time: 1 hr 46 min 37 sec) 
Heartbeat CPU 0 instructions: 83000003 cycles: 58320332 heartbeat IPC: 1.43721 cumulative IPC: 1.34042 (Simulation time: 1 hr 47 min 52 sec) 
Heartbeat CPU 0 instructions: 84000000 cycles: 59021616 heartbeat IPC: 1.42595 cumulative IPC: 1.34151 (Simulation time: 1 hr 49 min 11 sec) 
Heartbeat CPU 0 instructions: 85000001 cycles: 59830592 heartbeat IPC: 1.23613 cumulative IPC: 1.33998 (Simulation time: 1 hr 50 min 32 sec) 
Heartbeat CPU 0 instructions: 86000000 cycles: 60494190 heartbeat IPC: 1.50693 cumulative IPC: 1.34194 (Simulation time: 1 hr 51 min 51 sec) 
Heartbeat CPU 0 instructions: 87000003 cycles: 61228139 heartbeat IPC: 1.3625 cumulative IPC: 1.3422 (Simulation time: 1 hr 53 min 10 sec) 
Heartbeat CPU 0 instructions: 88000000 cycles: 62035402 heartbeat IPC: 1.23875 cumulative IPC: 1.34077 (Simulation time: 1 hr 54 min 26 sec) 
Heartbeat CPU 0 instructions: 89000002 cycles: 62695645 heartbeat IPC: 1.5146 cumulative IPC: 1.34272 (Simulation time: 1 hr 55 min 40 sec) 
Heartbeat CPU 0 instructions: 90000001 cycles: 63421800 heartbeat IPC: 1.37712 cumulative IPC: 1.34314 (Simulation time: 1 hr 56 min 56 sec) 
Heartbeat CPU 0 instructions: 91000001 cycles: 64227116 heartbeat IPC: 1.24175 cumulative IPC: 1.34178 (Simulation time: 1 hr 58 min 15 sec) 
Heartbeat CPU 0 instructions: 92000000 cycles: 64890250 heartbeat IPC: 1.50799 cumulative IPC: 1.34359 (Simulation time: 1 hr 59 min 28 sec) 
Heartbeat CPU 0 instructions: 93000002 cycles: 65606595 heartbeat IPC: 1.39598 cumulative IPC: 1.3442 (Simulation time: 2 hr 0 min 48 sec) 
Heartbeat CPU 0 instructions: 94000000 cycles: 66426105 heartbeat IPC: 1.22024 cumulative IPC: 1.34257 (Simulation time: 2 hr 2 min 3 sec) 
Heartbeat CPU 0 instructions: 95000000 cycles: 67099470 heartbeat IPC: 1.48508 cumulative IPC: 1.34409 (Simulation time: 2 hr 3 min 17 sec) 
Heartbeat CPU 0 instructions: 96000000 cycles: 67851709 heartbeat IPC: 1.32936 cumulative IPC: 1.34392 (Simulation time: 2 hr 4 min 35 sec) 
Heartbeat CPU 0 instructions: 97000002 cycles: 69034052 heartbeat IPC: 0.84578 cumulative IPC: 1.33488 (Simulation time: 2 hr 5 min 58 sec) 
Heartbeat CPU 0 instructions: 98000003 cycles: 69972789 heartbeat IPC: 1.06526 cumulative IPC: 1.33105 (Simulation time: 2 hr 7 min 18 sec) 
Heartbeat CPU 0 instructions: 99000001 cycles: 70657345 heartbeat IPC: 1.4608 cumulative IPC: 1.33238 (Simulation time: 2 hr 8 min 34 sec) 
Heartbeat CPU 0 instructions: 100000000 cycles: 71383477 heartbeat IPC: 1.37716 cumulative IPC: 1.33286 (Simulation time: 2 hr 9 min 54 sec) 
Heartbeat CPU 0 instructions: 101000001 cycles: 72770449 heartbeat IPC: 0.720996 cumulative IPC: 1.32055 (Simulation time: 2 hr 11 min 24 sec) 
Heartbeat CPU 0 instructions: 102000001 cycles: 73535808 heartbeat IPC: 1.30658 cumulative IPC: 1.3204 (Simulation time: 2 hr 12 min 42 sec) 
Heartbeat CPU 0 instructions: 103000001 cycles: 74278810 heartbeat IPC: 1.34589 cumulative IPC: 1.32066 (Simulation time: 2 hr 14 min 1 sec) 
Heartbeat CPU 0 instructions: 104000000 cycles: 75510419 heartbeat IPC: 0.811945 cumulative IPC: 1.31192 (Simulation time: 2 hr 15 min 23 sec) 
Heartbeat CPU 0 instructions: 105000002 cycles: 76326521 heartbeat IPC: 1.22534 cumulative IPC: 1.31095 (Simulation time: 2 hr 16 min 45 sec) 
Heartbeat CPU 0 instructions: 106000000 cycles: 77046128 heartbeat IPC: 1.38964 cumulative IPC: 1.31172 (Simulation time: 2 hr 18 min 0 sec) 
Heartbeat CPU 0 instructions: 107000000 cycles: 78088903 heartbeat IPC: 0.95898 cumulative IPC: 1.30676 (Simulation time: 2 hr 19 min 23 sec) 
Heartbeat CPU 0 instructions: 108000000 cycles: 79066749 heartbeat IPC: 1.02266 cumulative IPC: 1.30307 (Simulation time: 2 hr 20 min 43 sec) 
Heartbeat CPU 0 instructions: 109000003 cycles: 79783923 heartbeat IPC: 1.39437 cumulative IPC: 1.30393 (Simulation time: 2 hr 21 min 56 sec) 
Heartbeat CPU 0 instructions: 110000000 cycles: 80614927 heartbeat IPC: 1.20336 cumulative IPC: 1.30284 (Simulation time: 2 hr 23 min 17 sec) 
Finished CPU 0 instructions: 100000003 cycles: 76755218 cummulative IPC: 1.30284 (Simulation time: 2 hr 23 min 17 sec) 

ChampSim completed all CPUs

Region of Interest Statistics

CPU 0 cummulative IPC: 1.30284 instructions: 100000003 cycles: 76755218
LLC TOTAL     ACCESS:    1445929  HIT:     996046  MISS:     449883
LLC LOAD      ACCESS:     118977  HIT:     100496  MISS:      18481
LLC RFO       ACCESS:     121981  HIT:     120264  MISS:       1717
LLC PREFETCH  ACCESS:    1076577  HIT:     647183  MISS:     429394
LLC WRITEBACK ACCESS:     128394  HIT:     128103  MISS:        291
