
*** ChampSim Multicore Out-of-Order Simulator ***

Warmup Instructions: 10000000
Simulation Instructions: 100000000
Configuration: 2
Number of CPUs: 1
LLC sets: 2048
LLC ways: 16
Off-chip DRAM Channels: 1 Width: 64-bit Data Rate: 1600 MT/s

CPU 0 runs /datasets/cs240c-wi22-a00-public/data/Assignment2-gz/astar_23B.trace.gz
CPU 0 L1D next line prefetcher
CPU 0 L2C IP-based stride prefetcher
config 2, num_core 1, llc_sets 2048
Heartbeat CPU 0 instructions: 1000000 cycles: 359967 heartbeat IPC: 2.77803 cumulative IPC: 2.77803 (Simulation time: 0 hr 1 min 31 sec) 
Heartbeat CPU 0 instructions: 2000001 cycles: 720608 heartbeat IPC: 2.77284 cumulative IPC: 2.77544 (Simulation time: 0 hr 3 min 1 sec) 
Heartbeat CPU 0 instructions: 3000000 cycles: 1079354 heartbeat IPC: 2.78748 cumulative IPC: 2.77944 (Simulation time: 0 hr 4 min 30 sec) 
Heartbeat CPU 0 instructions: 4000000 cycles: 1440610 heartbeat IPC: 2.76812 cumulative IPC: 2.7766 (Simulation time: 0 hr 5 min 56 sec) 
Heartbeat CPU 0 instructions: 5000000 cycles: 1802550 heartbeat IPC: 2.76289 cumulative IPC: 2.77385 (Simulation time: 0 hr 7 min 25 sec) 
Heartbeat CPU 0 instructions: 6000002 cycles: 2164028 heartbeat IPC: 2.76643 cumulative IPC: 2.77261 (Simulation time: 0 hr 8 min 53 sec) 
Heartbeat CPU 0 instructions: 7000002 cycles: 2525315 heartbeat IPC: 2.76788 cumulative IPC: 2.77193 (Simulation time: 0 hr 10 min 23 sec) 
Heartbeat CPU 0 instructions: 8000000 cycles: 2888012 heartbeat IPC: 2.75712 cumulative IPC: 2.77007 (Simulation time: 0 hr 11 min 46 sec) 
Heartbeat CPU 0 instructions: 9000000 cycles: 3250732 heartbeat IPC: 2.75695 cumulative IPC: 2.76861 (Simulation time: 0 hr 13 min 13 sec) 
Heartbeat CPU 0 instructions: 10000003 cycles: 3615359 heartbeat IPC: 2.74254 cumulative IPC: 2.76598 (Simulation time: 0 hr 14 min 34 sec) 

Warmup complete CPU 0 instructions: 10000003 cycles: 3615359 (Simulation time: 0 hr 14 min 34 sec) 

Heartbeat CPU 0 instructions: 11000000 cycles: 6651115 heartbeat IPC: 0.329406 cumulative IPC: 0.329406 (Simulation time: 0 hr 15 min 57 sec) 
Heartbeat CPU 0 instructions: 12000000 cycles: 9371684 heartbeat IPC: 0.36757 cumulative IPC: 0.347443 (Simulation time: 0 hr 17 min 18 sec) 
Heartbeat CPU 0 instructions: 13000002 cycles: 11936846 heartbeat IPC: 0.38984 cumulative IPC: 0.360512 (Simulation time: 0 hr 18 min 37 sec) 
Heartbeat CPU 0 instructions: 14000001 cycles: 14778839 heartbeat IPC: 0.351865 cumulative IPC: 0.358311 (Simulation time: 0 hr 19 min 56 sec) 
Heartbeat CPU 0 instructions: 15000000 cycles: 17881940 heartbeat IPC: 0.322258 cumulative IPC: 0.350469 (Simulation time: 0 hr 21 min 17 sec) 
Heartbeat CPU 0 instructions: 16000000 cycles: 20637927 heartbeat IPC: 0.362846 cumulative IPC: 0.352473 (Simulation time: 0 hr 22 min 39 sec) 
Heartbeat CPU 0 instructions: 17000002 cycles: 23194292 heartbeat IPC: 0.391181 cumulative IPC: 0.357527 (Simulation time: 0 hr 23 min 58 sec) 
Heartbeat CPU 0 instructions: 18000000 cycles: 25848652 heartbeat IPC: 0.376738 cumulative IPC: 0.359821 (Simulation time: 0 hr 25 min 17 sec) 
Heartbeat CPU 0 instructions: 19000000 cycles: 28581860 heartbeat IPC: 0.36587 cumulative IPC: 0.360483 (Simulation time: 0 hr 26 min 35 sec) 
Heartbeat CPU 0 instructions: 20000000 cycles: 31379187 heartbeat IPC: 0.357484 cumulative IPC: 0.360181 (Simulation time: 0 hr 28 min 3 sec) 
Heartbeat CPU 0 instructions: 21000001 cycles: 34213603 heartbeat IPC: 0.352807 cumulative IPC: 0.359498 (Simulation time: 0 hr 29 min 24 sec) 
Heartbeat CPU 0 instructions: 22000002 cycles: 37103360 heartbeat IPC: 0.34605 cumulative IPC: 0.358337 (Simulation time: 0 hr 30 min 41 sec) 
Heartbeat CPU 0 instructions: 23000003 cycles: 40230677 heartbeat IPC: 0.319763 cumulative IPC: 0.355043 (Simulation time: 0 hr 32 min 1 sec) 
Heartbeat CPU 0 instructions: 24000000 cycles: 43553310 heartbeat IPC: 0.300965 cumulative IPC: 0.350544 (Simulation time: 0 hr 33 min 21 sec) 
Heartbeat CPU 0 instructions: 25000000 cycles: 47239408 heartbeat IPC: 0.27129 cumulative IPC: 0.343847 (Simulation time: 0 hr 34 min 49 sec) 
Heartbeat CPU 0 instructions: 26000000 cycles: 51237663 heartbeat IPC: 0.250109 cumulative IPC: 0.335977 (Simulation time: 0 hr 36 min 7 sec) 
Heartbeat CPU 0 instructions: 27000000 cycles: 55094456 heartbeat IPC: 0.259283 cumulative IPC: 0.330231 (Simulation time: 0 hr 37 min 26 sec) 
Heartbeat CPU 0 instructions: 28000000 cycles: 58784120 heartbeat IPC: 0.271027 cumulative IPC: 0.326272 (Simulation time: 0 hr 38 min 44 sec) 
Heartbeat CPU 0 instructions: 29000000 cycles: 62163474 heartbeat IPC: 0.295915 cumulative IPC: 0.324519 (Simulation time: 0 hr 40 min 2 sec) 
Heartbeat CPU 0 instructions: 30000000 cycles: 65575707 heartbeat IPC: 0.293063 cumulative IPC: 0.322787 (Simulation time: 0 hr 41 min 24 sec) 
Heartbeat CPU 0 instructions: 31000001 cycles: 69080672 heartbeat IPC: 0.28531 cumulative IPC: 0.320781 (Simulation time: 0 hr 42 min 43 sec) 
Heartbeat CPU 0 instructions: 32000000 cycles: 72727654 heartbeat IPC: 0.274199 cumulative IPC: 0.318322 (Simulation time: 0 hr 44 min 6 sec) 
Heartbeat CPU 0 instructions: 33000001 cycles: 76592964 heartbeat IPC: 0.258712 cumulative IPC: 0.315165 (Simulation time: 0 hr 45 min 28 sec) 
Heartbeat CPU 0 instructions: 34000003 cycles: 80503084 heartbeat IPC: 0.255747 cumulative IPC: 0.312143 (Simulation time: 0 hr 46 min 48 sec) 
Heartbeat CPU 0 instructions: 35000003 cycles: 84296734 heartbeat IPC: 0.263598 cumulative IPC: 0.309861 (Simulation time: 0 hr 48 min 12 sec) 
Heartbeat CPU 0 instructions: 36000000 cycles: 88279352 heartbeat IPC: 0.25109 cumulative IPC: 0.307096 (Simulation time: 0 hr 49 min 37 sec) 
Heartbeat CPU 0 instructions: 37000000 cycles: 92420291 heartbeat IPC: 0.241491 cumulative IPC: 0.304037 (Simulation time: 0 hr 50 min 58 sec) 
Heartbeat CPU 0 instructions: 38000003 cycles: 96390216 heartbeat IPC: 0.251895 cumulative IPC: 0.301806 (Simulation time: 0 hr 52 min 25 sec) 
Heartbeat CPU 0 instructions: 39000000 cycles: 100215831 heartbeat IPC: 0.261395 cumulative IPC: 0.300206 (Simulation time: 0 hr 53 min 47 sec) 
Heartbeat CPU 0 instructions: 40000000 cycles: 103906521 heartbeat IPC: 0.270952 cumulative IPC: 0.299129 (Simulation time: 0 hr 55 min 12 sec) 
Heartbeat CPU 0 instructions: 41000003 cycles: 107523744 heartbeat IPC: 0.276456 cumulative IPC: 0.29834 (Simulation time: 0 hr 56 min 34 sec) 
Heartbeat CPU 0 instructions: 42000000 cycles: 111091677 heartbeat IPC: 0.280273 cumulative IPC: 0.29774 (Simulation time: 0 hr 57 min 52 sec) 
Heartbeat CPU 0 instructions: 43000000 cycles: 114297751 heartbeat IPC: 0.311908 cumulative IPC: 0.29815 (Simulation time: 0 hr 59 min 11 sec) 
Heartbeat CPU 0 instructions: 44000000 cycles: 117377195 heartbeat IPC: 0.324734 cumulative IPC: 0.29887 (Simulation time: 1 hr 0 min 30 sec) 
Heartbeat CPU 0 instructions: 45000001 cycles: 120573853 heartbeat IPC: 0.312827 cumulative IPC: 0.299251 (Simulation time: 1 hr 1 min 49 sec) 
Heartbeat CPU 0 instructions: 46000003 cycles: 123579815 heartbeat IPC: 0.332673 cumulative IPC: 0.300089 (Simulation time: 1 hr 3 min 5 sec) 
Heartbeat CPU 0 instructions: 47000002 cycles: 126658224 heartbeat IPC: 0.324843 cumulative IPC: 0.300708 (Simulation time: 1 hr 4 min 22 sec) 
Heartbeat CPU 0 instructions: 48000000 cycles: 129767182 heartbeat IPC: 0.321651 cumulative IPC: 0.301224 (Simulation time: 1 hr 5 min 41 sec) 
Heartbeat CPU 0 instructions: 49000003 cycles: 132978706 heartbeat IPC: 0.31138 cumulative IPC: 0.301476 (Simulation time: 1 hr 7 min 2 sec) 
Heartbeat CPU 0 instructions: 50000000 cycles: 136087264 heartbeat IPC: 0.321692 cumulative IPC: 0.301951 (Simulation time: 1 hr 8 min 21 sec) 
Heartbeat CPU 0 instructions: 51000001 cycles: 139793692 heartbeat IPC: 0.269802 cumulative IPC: 0.301076 (Simulation time: 1 hr 9 min 47 sec) 
Heartbeat CPU 0 instructions: 52000000 cycles: 143708350 heartbeat IPC: 0.25545 cumulative IPC: 0.299801 (Simulation time: 1 hr 11 min 4 sec) 
Heartbeat CPU 0 instructions: 53000000 cycles: 146520142 heartbeat IPC: 0.355645 cumulative IPC: 0.3009 (Simulation time: 1 hr 12 min 28 sec) 
Heartbeat CPU 0 instructions: 54000002 cycles: 149399668 heartbeat IPC: 0.34728 cumulative IPC: 0.301816 (Simulation time: 1 hr 13 min 49 sec) 
Heartbeat CPU 0 instructions: 55000002 cycles: 152226938 heartbeat IPC: 0.353698 cumulative IPC: 0.302803 (Simulation time: 1 hr 15 min 17 sec) 
Heartbeat CPU 0 instructions: 56000000 cycles: 155007996 heartbeat IPC: 0.359575 cumulative IPC: 0.303846 (Simulation time: 1 hr 16 min 36 sec) 
Heartbeat CPU 0 instructions: 57000000 cycles: 157601772 heartbeat IPC: 0.385538 cumulative IPC: 0.305222 (Simulation time: 1 hr 17 min 53 sec) 
Heartbeat CPU 0 instructions: 58000001 cycles: 160157232 heartbeat IPC: 0.391319 cumulative IPC: 0.306627 (Simulation time: 1 hr 19 min 7 sec) 
Heartbeat CPU 0 instructions: 59000000 cycles: 162898776 heartbeat IPC: 0.364758 cumulative IPC: 0.307628 (Simulation time: 1 hr 20 min 26 sec) 
Heartbeat CPU 0 instructions: 60000000 cycles: 165487711 heartbeat IPC: 0.386259 cumulative IPC: 0.308885 (Simulation time: 1 hr 21 min 44 sec) 
Heartbeat CPU 0 instructions: 61000000 cycles: 167996443 heartbeat IPC: 0.398608 cumulative IPC: 0.310255 (Simulation time: 1 hr 23 min 4 sec) 
Heartbeat CPU 0 instructions: 62000003 cycles: 170509935 heartbeat IPC: 0.397854 cumulative IPC: 0.311574 (Simulation time: 1 hr 24 min 37 sec) 
Heartbeat CPU 0 instructions: 63000000 cycles: 173194214 heartbeat IPC: 0.372538 cumulative IPC: 0.312539 (Simulation time: 1 hr 26 min 0 sec) 
Heartbeat CPU 0 instructions: 64000000 cycles: 175819709 heartbeat IPC: 0.380881 cumulative IPC: 0.313581 (Simulation time: 1 hr 27 min 32 sec) 
Heartbeat CPU 0 instructions: 65000000 cycles: 178334020 heartbeat IPC: 0.397723 cumulative IPC: 0.314792 (Simulation time: 1 hr 29 min 2 sec) 
Heartbeat CPU 0 instructions: 66000000 cycles: 180873767 heartbeat IPC: 0.39374 cumulative IPC: 0.315923 (Simulation time: 1 hr 30 min 32 sec) 
Heartbeat CPU 0 instructions: 67000000 cycles: 183412204 heartbeat IPC: 0.393943 cumulative IPC: 0.317024 (Simulation time: 1 hr 32 min 4 sec) 
Heartbeat CPU 0 instructions: 68000000 cycles: 185869049 heartbeat IPC: 0.407026 cumulative IPC: 0.318238 (Simulation time: 1 hr 33 min 35 sec) 
Heartbeat CPU 0 instructions: 69000000 cycles: 188531028 heartbeat IPC: 0.37566 cumulative IPC: 0.319064 (Simulation time: 1 hr 34 min 59 sec) 
Heartbeat CPU 0 instructions: 70000000 cycles: 191144431 heartbeat IPC: 0.382643 cumulative IPC: 0.31995 (Simulation time: 1 hr 36 min 32 sec) 
Heartbeat CPU 0 instructions: 71000001 cycles: 193872439 heartbeat IPC: 0.366568 cumulative IPC: 0.320619 (Simulation time: 1 hr 38 min 5 sec) 
Heartbeat CPU 0 instructions: 72000000 cycles: 196611809 heartbeat IPC: 0.365047 cumulative IPC: 0.321249 (Simulation time: 1 hr 39 min 30 sec) 
Heartbeat CPU 0 instructions: 73000001 cycles: 199248611 heartbeat IPC: 0.379248 cumulative IPC: 0.322031 (Simulation time: 1 hr 40 min 51 sec) 
Heartbeat CPU 0 instructions: 74000002 cycles: 201605756 heartbeat IPC: 0.424242 cumulative IPC: 0.323248 (Simulation time: 1 hr 42 min 17 sec) 
Heartbeat CPU 0 instructions: 75000002 cycles: 204266756 heartbeat IPC: 0.375799 cumulative IPC: 0.323945 (Simulation time: 1 hr 43 min 40 sec) 
Heartbeat CPU 0 instructions: 76000000 cycles: 206946557 heartbeat IPC: 0.373161 cumulative IPC: 0.324594 (Simulation time: 1 hr 45 min 3 sec) 
Heartbeat CPU 0 instructions: 77000000 cycles: 210178581 heartbeat IPC: 0.309404 cumulative IPC: 0.324356 (Simulation time: 1 hr 46 min 35 sec) 
Heartbeat CPU 0 instructions: 78000003 cycles: 213193911 heartbeat IPC: 0.33164 cumulative IPC: 0.324461 (Simulation time: 1 hr 48 min 10 sec) 
Heartbeat CPU 0 instructions: 79000001 cycles: 215640107 heartbeat IPC: 0.408797 cumulative IPC: 0.325434 (Simulation time: 1 hr 49 min 51 sec) 
Heartbeat CPU 0 instructions: 80000000 cycles: 218207994 heartbeat IPC: 0.389425 cumulative IPC: 0.326199 (Simulation time: 1 hr 51 min 36 sec) 
Heartbeat CPU 0 instructions: 81000001 cycles: 220806334 heartbeat IPC: 0.384861 cumulative IPC: 0.326901 (Simulation time: 1 hr 53 min 27 sec) 
Heartbeat CPU 0 instructions: 82000002 cycles: 223348036 heartbeat IPC: 0.393438 cumulative IPC: 0.327671 (Simulation time: 1 hr 55 min 19 sec) 
Heartbeat CPU 0 instructions: 83000002 cycles: 225780595 heartbeat IPC: 0.41109 cumulative IPC: 0.328584 (Simulation time: 1 hr 57 min 12 sec) 
Heartbeat CPU 0 instructions: 84000000 cycles: 228253998 heartbeat IPC: 0.4043 cumulative IPC: 0.329418 (Simulation time: 1 hr 59 min 13 sec) 
Heartbeat CPU 0 instructions: 85000000 cycles: 230753253 heartbeat IPC: 0.400119 cumulative IPC: 0.330196 (Simulation time: 2 hr 1 min 12 sec) 
Heartbeat CPU 0 instructions: 86000001 cycles: 233156170 heartbeat IPC: 0.416161 cumulative IPC: 0.331096 (Simulation time: 2 hr 2 min 49 sec) 
Heartbeat CPU 0 instructions: 87000000 cycles: 235525142 heartbeat IPC: 0.422124 cumulative IPC: 0.332026 (Simulation time: 2 hr 4 min 23 sec) 
Heartbeat CPU 0 instructions: 88000000 cycles: 238039295 heartbeat IPC: 0.397748 cumulative IPC: 0.332731 (Simulation time: 2 hr 5 min 49 sec) 
Heartbeat CPU 0 instructions: 89000000 cycles: 240580404 heartbeat IPC: 0.393529 cumulative IPC: 0.333382 (Simulation time: 2 hr 7 min 18 sec) 
Heartbeat CPU 0 instructions: 90000001 cycles: 243062639 heartbeat IPC: 0.402863 cumulative IPC: 0.334103 (Simulation time: 2 hr 8 min 38 sec) 
Heartbeat CPU 0 instructions: 91000000 cycles: 245505971 heartbeat IPC: 0.409277 cumulative IPC: 0.334862 (Simulation time: 2 hr 10 min 9 sec) 
Heartbeat CPU 0 instructions: 92000000 cycles: 248423005 heartbeat IPC: 0.342814 cumulative IPC: 0.334957 (Simulation time: 2 hr 11 min 33 sec) 
Heartbeat CPU 0 instructions: 93000000 cycles: 250951736 heartbeat IPC: 0.395455 cumulative IPC: 0.335575 (Simulation time: 2 hr 13 min 8 sec) 
Heartbeat CPU 0 instructions: 94000003 cycles: 253484807 heartbeat IPC: 0.394779 cumulative IPC: 0.336176 (Simulation time: 2 hr 14 min 45 sec) 
Heartbeat CPU 0 instructions: 95000000 cycles: 255917270 heartbeat IPC: 0.411105 cumulative IPC: 0.336898 (Simulation time: 2 hr 16 min 32 sec) 
Heartbeat CPU 0 instructions: 96000000 cycles: 258432549 heartbeat IPC: 0.39757 cumulative IPC: 0.337497 (Simulation time: 2 hr 18 min 20 sec) 
Heartbeat CPU 0 instructions: 97000000 cycles: 260861442 heartbeat IPC: 0.41171 cumulative IPC: 0.338198 (Simulation time: 2 hr 20 min 4 sec) 
Heartbeat CPU 0 instructions: 98000000 cycles: 263383049 heartbeat IPC: 0.396573 cumulative IPC: 0.338764 (Simulation time: 2 hr 21 min 45 sec) 
Heartbeat CPU 0 instructions: 99000002 cycles: 266338061 heartbeat IPC: 0.338409 cumulative IPC: 0.33876 (Simulation time: 2 hr 23 min 32 sec) 
Heartbeat CPU 0 instructions: 100000000 cycles: 269082148 heartbeat IPC: 0.364419 cumulative IPC: 0.339025 (Simulation time: 2 hr 25 min 16 sec) 
Heartbeat CPU 0 instructions: 101000000 cycles: 271990585 heartbeat IPC: 0.343827 cumulative IPC: 0.339077 (Simulation time: 2 hr 27 min 2 sec) 
Heartbeat CPU 0 instructions: 102000001 cycles: 275434285 heartbeat IPC: 0.290386 cumulative IPC: 0.338461 (Simulation time: 2 hr 28 min 43 sec) 
Heartbeat CPU 0 instructions: 103000002 cycles: 278889102 heartbeat IPC: 0.289451 cumulative IPC: 0.337846 (Simulation time: 2 hr 30 min 6 sec) 
Heartbeat CPU 0 instructions: 104000000 cycles: 281975771 heartbeat IPC: 0.323973 cumulative IPC: 0.337692 (Simulation time: 2 hr 31 min 28 sec) 
Heartbeat CPU 0 instructions: 105000001 cycles: 284777334 heartbeat IPC: 0.356944 cumulative IPC: 0.337884 (Simulation time: 2 hr 32 min 54 sec) 
Heartbeat CPU 0 instructions: 106000001 cycles: 287386664 heartbeat IPC: 0.38324 cumulative IPC: 0.338301 (Simulation time: 2 hr 34 min 17 sec) 
Heartbeat CPU 0 instructions: 107000002 cycles: 290153507 heartbeat IPC: 0.361423 cumulative IPC: 0.338524 (Simulation time: 2 hr 35 min 37 sec) 
Heartbeat CPU 0 instructions: 108000000 cycles: 293070251 heartbeat IPC: 0.342847 cumulative IPC: 0.338567 (Simulation time: 2 hr 36 min 55 sec) 
Heartbeat CPU 0 instructions: 109000003 cycles: 296114547 heartbeat IPC: 0.328484 cumulative IPC: 0.338462 (Simulation time: 2 hr 38 min 10 sec) 
Heartbeat CPU 0 instructions: 110000003 cycles: 299103948 heartbeat IPC: 0.334515 cumulative IPC: 0.338423 (Simulation time: 2 hr 39 min 27 sec) 
Finished CPU 0 instructions: 100000000 cycles: 295488589 cummulative IPC: 0.338423 (Simulation time: 2 hr 39 min 27 sec) 

ChampSim completed all CPUs

Region of Interest Statistics

CPU 0 cummulative IPC: 0.338423 instructions: 100000000 cycles: 295488589
LLC TOTAL     ACCESS:    5226350  HIT:    4717696  MISS:     508654
LLC LOAD      ACCESS:    2121351  HIT:    1996317  MISS:     125034
LLC RFO       ACCESS:      29853  HIT:      29571  MISS:        282
LLC PREFETCH  ACCESS:    2265980  HIT:    1907683  MISS:     358297
LLC WRITEBACK ACCESS:     809166  HIT:     784125  MISS:      25041
