
*** ChampSim Multicore Out-of-Order Simulator ***

Warmup Instructions: 10000000
Simulation Instructions: 100000000
Configuration: 2
Number of CPUs: 1
LLC sets: 2048
LLC ways: 16
Off-chip DRAM Channels: 1 Width: 64-bit Data Rate: 1600 MT/s

CPU 0 runs /datasets/cs240c-wi22-a00-public/data/Assignment2-gz/lbm_564B.trace.gz
CPU 0 L1D next line prefetcher
CPU 0 L2C IP-based stride prefetcher
config 2, num_core 1, llc_sets 2048
Heartbeat CPU 0 instructions: 1000000 cycles: 390168 heartbeat IPC: 2.563 cumulative IPC: 2.563 (Simulation time: 0 hr 1 min 26 sec) 
Heartbeat CPU 0 instructions: 2000003 cycles: 785204 heartbeat IPC: 2.53142 cumulative IPC: 2.54711 (Simulation time: 0 hr 3 min 1 sec) 
Heartbeat CPU 0 instructions: 3000002 cycles: 1175399 heartbeat IPC: 2.56282 cumulative IPC: 2.55233 (Simulation time: 0 hr 4 min 34 sec) 
Heartbeat CPU 0 instructions: 4000000 cycles: 1565586 heartbeat IPC: 2.56287 cumulative IPC: 2.55495 (Simulation time: 0 hr 5 min 59 sec) 
Heartbeat CPU 0 instructions: 5000000 cycles: 1960705 heartbeat IPC: 2.53088 cumulative IPC: 2.5501 (Simulation time: 0 hr 7 min 28 sec) 
Heartbeat CPU 0 instructions: 6000002 cycles: 2350861 heartbeat IPC: 2.56308 cumulative IPC: 2.55226 (Simulation time: 0 hr 8 min 55 sec) 
Heartbeat CPU 0 instructions: 7000001 cycles: 2741123 heartbeat IPC: 2.56238 cumulative IPC: 2.5537 (Simulation time: 0 hr 10 min 23 sec) 
Heartbeat CPU 0 instructions: 8000000 cycles: 3136129 heartbeat IPC: 2.5316 cumulative IPC: 2.55092 (Simulation time: 0 hr 11 min 46 sec) 
Heartbeat CPU 0 instructions: 9000000 cycles: 3526400 heartbeat IPC: 2.56232 cumulative IPC: 2.55218 (Simulation time: 0 hr 13 min 10 sec) 
Heartbeat CPU 0 instructions: 10000002 cycles: 3916557 heartbeat IPC: 2.56308 cumulative IPC: 2.55326 (Simulation time: 0 hr 14 min 29 sec) 

Warmup complete CPU 0 instructions: 10000002 cycles: 3916557 (Simulation time: 0 hr 14 min 29 sec) 

Heartbeat CPU 0 instructions: 11000000 cycles: 5199389 heartbeat IPC: 0.779524 cumulative IPC: 0.779524 (Simulation time: 0 hr 15 min 59 sec) 
Heartbeat CPU 0 instructions: 12000000 cycles: 6579845 heartbeat IPC: 0.724398 cumulative IPC: 0.750951 (Simulation time: 0 hr 17 min 30 sec) 
Heartbeat CPU 0 instructions: 13000001 cycles: 7962378 heartbeat IPC: 0.723311 cumulative IPC: 0.741506 (Simulation time: 0 hr 19 min 4 sec) 
Heartbeat CPU 0 instructions: 14000001 cycles: 9370664 heartbeat IPC: 0.710083 cumulative IPC: 0.733392 (Simulation time: 0 hr 20 min 37 sec) 
Heartbeat CPU 0 instructions: 15000000 cycles: 10726361 heartbeat IPC: 0.737627 cumulative IPC: 0.734235 (Simulation time: 0 hr 22 min 15 sec) 
Heartbeat CPU 0 instructions: 16000000 cycles: 12158662 heartbeat IPC: 0.698177 cumulative IPC: 0.727969 (Simulation time: 0 hr 23 min 57 sec) 
Heartbeat CPU 0 instructions: 17000000 cycles: 13611679 heartbeat IPC: 0.688223 cumulative IPC: 0.722012 (Simulation time: 0 hr 25 min 33 sec) 
Heartbeat CPU 0 instructions: 18000000 cycles: 14896922 heartbeat IPC: 0.778063 cumulative IPC: 0.728573 (Simulation time: 0 hr 27 min 4 sec) 
Heartbeat CPU 0 instructions: 19000003 cycles: 16282775 heartbeat IPC: 0.721579 cumulative IPC: 0.727789 (Simulation time: 0 hr 28 min 32 sec) 
Heartbeat CPU 0 instructions: 20000000 cycles: 17765074 heartbeat IPC: 0.674626 cumulative IPC: 0.722099 (Simulation time: 0 hr 30 min 9 sec) 
Heartbeat CPU 0 instructions: 21000003 cycles: 19114713 heartbeat IPC: 0.740941 cumulative IPC: 0.723772 (Simulation time: 0 hr 31 min 40 sec) 
Heartbeat CPU 0 instructions: 22000003 cycles: 20959109 heartbeat IPC: 0.542183 cumulative IPC: 0.70412 (Simulation time: 0 hr 33 min 29 sec) 
Heartbeat CPU 0 instructions: 23000001 cycles: 23170648 heartbeat IPC: 0.452173 cumulative IPC: 0.675181 (Simulation time: 0 hr 35 min 31 sec) 
Heartbeat CPU 0 instructions: 24000000 cycles: 29503765 heartbeat IPC: 0.1579 cumulative IPC: 0.547148 (Simulation time: 0 hr 39 min 21 sec) 
Heartbeat CPU 0 instructions: 25000003 cycles: 32308227 heartbeat IPC: 0.356576 cumulative IPC: 0.528324 (Simulation time: 0 hr 41 min 38 sec) 
Heartbeat CPU 0 instructions: 26000002 cycles: 34637979 heartbeat IPC: 0.42923 cumulative IPC: 0.520809 (Simulation time: 0 hr 43 min 42 sec) 
Heartbeat CPU 0 instructions: 27000001 cycles: 36068332 heartbeat IPC: 0.699127 cumulative IPC: 0.528742 (Simulation time: 0 hr 45 min 15 sec) 
Heartbeat CPU 0 instructions: 28000000 cycles: 37534288 heartbeat IPC: 0.682148 cumulative IPC: 0.535432 (Simulation time: 0 hr 46 min 47 sec) 
Heartbeat CPU 0 instructions: 29000003 cycles: 38997078 heartbeat IPC: 0.683627 cumulative IPC: 0.541611 (Simulation time: 0 hr 48 min 20 sec) 
Heartbeat CPU 0 instructions: 30000000 cycles: 40377267 heartbeat IPC: 0.724536 cumulative IPC: 0.548536 (Simulation time: 0 hr 49 min 50 sec) 
Heartbeat CPU 0 instructions: 31000000 cycles: 41765905 heartbeat IPC: 0.72013 cumulative IPC: 0.554831 (Simulation time: 0 hr 51 min 19 sec) 
Heartbeat CPU 0 instructions: 32000000 cycles: 43130198 heartbeat IPC: 0.73298 cumulative IPC: 0.561029 (Simulation time: 0 hr 52 min 54 sec) 
Heartbeat CPU 0 instructions: 33000001 cycles: 44540875 heartbeat IPC: 0.70888 cumulative IPC: 0.566163 (Simulation time: 0 hr 54 min 23 sec) 
Heartbeat CPU 0 instructions: 34000001 cycles: 45826396 heartbeat IPC: 0.777895 cumulative IPC: 0.572658 (Simulation time: 0 hr 55 min 50 sec) 
Heartbeat CPU 0 instructions: 35000002 cycles: 47215562 heartbeat IPC: 0.719857 cumulative IPC: 0.57738 (Simulation time: 0 hr 57 min 25 sec) 
Heartbeat CPU 0 instructions: 36000000 cycles: 48595649 heartbeat IPC: 0.724591 cumulative IPC: 0.581928 (Simulation time: 0 hr 59 min 5 sec) 
Heartbeat CPU 0 instructions: 37000000 cycles: 49947795 heartbeat IPC: 0.739565 cumulative IPC: 0.586558 (Simulation time: 1 hr 0 min 45 sec) 
Heartbeat CPU 0 instructions: 38000003 cycles: 51308291 heartbeat IPC: 0.735028 cumulative IPC: 0.59082 (Simulation time: 1 hr 2 min 12 sec) 
Heartbeat CPU 0 instructions: 39000002 cycles: 52692112 heartbeat IPC: 0.722636 cumulative IPC: 0.59456 (Simulation time: 1 hr 3 min 45 sec) 
Heartbeat CPU 0 instructions: 40000000 cycles: 54083827 heartbeat IPC: 0.718536 cumulative IPC: 0.597999 (Simulation time: 1 hr 5 min 14 sec) 
Heartbeat CPU 0 instructions: 41000000 cycles: 55441602 heartbeat IPC: 0.736499 cumulative IPC: 0.601649 (Simulation time: 1 hr 6 min 42 sec) 
Heartbeat CPU 0 instructions: 42000002 cycles: 56837028 heartbeat IPC: 0.716628 cumulative IPC: 0.604681 (Simulation time: 1 hr 8 min 13 sec) 
Heartbeat CPU 0 instructions: 43000001 cycles: 58218368 heartbeat IPC: 0.723934 cumulative IPC: 0.607715 (Simulation time: 1 hr 9 min 43 sec) 
Heartbeat CPU 0 instructions: 44000000 cycles: 59520917 heartbeat IPC: 0.767725 cumulative IPC: 0.611463 (Simulation time: 1 hr 11 min 8 sec) 
Heartbeat CPU 0 instructions: 45000001 cycles: 60876635 heartbeat IPC: 0.737617 cumulative IPC: 0.614465 (Simulation time: 1 hr 12 min 44 sec) 
Heartbeat CPU 0 instructions: 46000002 cycles: 62227840 heartbeat IPC: 0.740081 cumulative IPC: 0.617376 (Simulation time: 1 hr 14 min 20 sec) 
Heartbeat CPU 0 instructions: 47000001 cycles: 63604623 heartbeat IPC: 0.72633 cumulative IPC: 0.619889 (Simulation time: 1 hr 15 min 48 sec) 
Heartbeat CPU 0 instructions: 48000000 cycles: 64914917 heartbeat IPC: 0.763187 cumulative IPC: 0.622968 (Simulation time: 1 hr 17 min 22 sec) 
Heartbeat CPU 0 instructions: 49000001 cycles: 66341148 heartbeat IPC: 0.701149 cumulative IPC: 0.624754 (Simulation time: 1 hr 19 min 3 sec) 
Heartbeat CPU 0 instructions: 50000001 cycles: 67766528 heartbeat IPC: 0.701567 cumulative IPC: 0.626469 (Simulation time: 1 hr 20 min 43 sec) 
Heartbeat CPU 0 instructions: 51000002 cycles: 69069260 heartbeat IPC: 0.767618 cumulative IPC: 0.629291 (Simulation time: 1 hr 22 min 18 sec) 
Heartbeat CPU 0 instructions: 52000000 cycles: 70465544 heartbeat IPC: 0.716185 cumulative IPC: 0.631114 (Simulation time: 1 hr 23 min 58 sec) 
Heartbeat CPU 0 instructions: 53000001 cycles: 71839533 heartbeat IPC: 0.727809 cumulative IPC: 0.63307 (Simulation time: 1 hr 25 min 39 sec) 
Heartbeat CPU 0 instructions: 54000001 cycles: 73229195 heartbeat IPC: 0.719599 cumulative IPC: 0.634805 (Simulation time: 1 hr 27 min 19 sec) 
Heartbeat CPU 0 instructions: 55000003 cycles: 74532528 heartbeat IPC: 0.767265 cumulative IPC: 0.63725 (Simulation time: 1 hr 28 min 58 sec) 
Heartbeat CPU 0 instructions: 56000000 cycles: 75933303 heartbeat IPC: 0.713888 cumulative IPC: 0.63874 (Simulation time: 1 hr 30 min 34 sec) 
Heartbeat CPU 0 instructions: 57000001 cycles: 77347624 heartbeat IPC: 0.707054 cumulative IPC: 0.640056 (Simulation time: 1 hr 32 min 14 sec) 
Heartbeat CPU 0 instructions: 58000002 cycles: 78692696 heartbeat IPC: 0.743455 cumulative IPC: 0.641916 (Simulation time: 1 hr 33 min 48 sec) 
Heartbeat CPU 0 instructions: 59000001 cycles: 80054835 heartbeat IPC: 0.734139 cumulative IPC: 0.643566 (Simulation time: 1 hr 35 min 23 sec) 
Heartbeat CPU 0 instructions: 60000000 cycles: 81479737 heartbeat IPC: 0.701802 cumulative IPC: 0.644636 (Simulation time: 1 hr 36 min 54 sec) 
Heartbeat CPU 0 instructions: 61000003 cycles: 82936092 heartbeat IPC: 0.686648 cumulative IPC: 0.64541 (Simulation time: 1 hr 38 min 28 sec) 
Heartbeat CPU 0 instructions: 62000003 cycles: 84254646 heartbeat IPC: 0.758407 cumulative IPC: 0.647265 (Simulation time: 1 hr 40 min 0 sec) 
Heartbeat CPU 0 instructions: 63000000 cycles: 85657292 heartbeat IPC: 0.712936 cumulative IPC: 0.648391 (Simulation time: 1 hr 41 min 40 sec) 
Heartbeat CPU 0 instructions: 64000000 cycles: 87097131 heartbeat IPC: 0.694522 cumulative IPC: 0.64919 (Simulation time: 1 hr 43 min 19 sec) 
Heartbeat CPU 0 instructions: 65000003 cycles: 88480215 heartbeat IPC: 0.723024 cumulative IPC: 0.650398 (Simulation time: 1 hr 44 min 57 sec) 
Heartbeat CPU 0 instructions: 66000001 cycles: 89820596 heartbeat IPC: 0.746055 cumulative IPC: 0.65189 (Simulation time: 1 hr 46 min 38 sec) 
Heartbeat CPU 0 instructions: 67000001 cycles: 91270123 heartbeat IPC: 0.68988 cumulative IPC: 0.652521 (Simulation time: 1 hr 48 min 35 sec) 
Heartbeat CPU 0 instructions: 68000000 cycles: 92721216 heartbeat IPC: 0.689135 cumulative IPC: 0.653119 (Simulation time: 1 hr 50 min 26 sec) 
Heartbeat CPU 0 instructions: 69000003 cycles: 94046723 heartbeat IPC: 0.754431 cumulative IPC: 0.654609 (Simulation time: 1 hr 52 min 18 sec) 
Heartbeat CPU 0 instructions: 70000003 cycles: 95473808 heartbeat IPC: 0.700729 cumulative IPC: 0.655328 (Simulation time: 1 hr 53 min 54 sec) 
Heartbeat CPU 0 instructions: 71000000 cycles: 96978932 heartbeat IPC: 0.664395 cumulative IPC: 0.655474 (Simulation time: 1 hr 55 min 35 sec) 
Heartbeat CPU 0 instructions: 72000000 cycles: 98302175 heartbeat IPC: 0.755719 cumulative IPC: 0.65688 (Simulation time: 1 hr 57 min 10 sec) 
Heartbeat CPU 0 instructions: 73000003 cycles: 99706747 heartbeat IPC: 0.711963 cumulative IPC: 0.657687 (Simulation time: 1 hr 58 min 46 sec) 
Heartbeat CPU 0 instructions: 74000002 cycles: 101244808 heartbeat IPC: 0.650169 cumulative IPC: 0.657569 (Simulation time: 2 hr 0 min 21 sec) 
Heartbeat CPU 0 instructions: 75000002 cycles: 102584302 heartbeat IPC: 0.746551 cumulative IPC: 0.658777 (Simulation time: 2 hr 2 min 13 sec) 
Heartbeat CPU 0 instructions: 76000000 cycles: 104032585 heartbeat IPC: 0.690471 cumulative IPC: 0.659235 (Simulation time: 2 hr 4 min 26 sec) 
Heartbeat CPU 0 instructions: 77000001 cycles: 105612281 heartbeat IPC: 0.633034 cumulative IPC: 0.658828 (Simulation time: 2 hr 6 min 30 sec) 
Heartbeat CPU 0 instructions: 78000002 cycles: 106955940 heartbeat IPC: 0.744237 cumulative IPC: 0.659942 (Simulation time: 2 hr 8 min 33 sec) 
Heartbeat CPU 0 instructions: 79000000 cycles: 108346556 heartbeat IPC: 0.719104 cumulative IPC: 0.66073 (Simulation time: 2 hr 10 min 31 sec) 
Heartbeat CPU 0 instructions: 80000000 cycles: 109932118 heartbeat IPC: 0.630691 cumulative IPC: 0.66028 (Simulation time: 2 hr 12 min 50 sec) 
Heartbeat CPU 0 instructions: 81000003 cycles: 111294037 heartbeat IPC: 0.73426 cumulative IPC: 0.661219 (Simulation time: 2 hr 15 min 0 sec) 
Heartbeat CPU 0 instructions: 82000001 cycles: 112688830 heartbeat IPC: 0.716951 cumulative IPC: 0.661933 (Simulation time: 2 hr 16 min 57 sec) 
Heartbeat CPU 0 instructions: 83000001 cycles: 114268346 heartbeat IPC: 0.633105 cumulative IPC: 0.661521 (Simulation time: 2 hr 19 min 8 sec) 
Heartbeat CPU 0 instructions: 84000000 cycles: 115696644 heartbeat IPC: 0.700133 cumulative IPC: 0.662014 (Simulation time: 2 hr 21 min 6 sec) 
Heartbeat CPU 0 instructions: 85000002 cycles: 117033578 heartbeat IPC: 0.747982 cumulative IPC: 0.66303 (Simulation time: 2 hr 22 min 55 sec) 
Heartbeat CPU 0 instructions: 86000002 cycles: 118643347 heartbeat IPC: 0.621207 cumulative IPC: 0.662443 (Simulation time: 2 hr 24 min 53 sec) 
Heartbeat CPU 0 instructions: 87000003 cycles: 120111889 heartbeat IPC: 0.680948 cumulative IPC: 0.662677 (Simulation time: 2 hr 26 min 37 sec) 
Heartbeat CPU 0 instructions: 88000000 cycles: 121436696 heartbeat IPC: 0.754825 cumulative IPC: 0.663716 (Simulation time: 2 hr 28 min 14 sec) 
Heartbeat CPU 0 instructions: 89000003 cycles: 123017460 heartbeat IPC: 0.632607 cumulative IPC: 0.663303 (Simulation time: 2 hr 29 min 51 sec) 
Heartbeat CPU 0 instructions: 90000001 cycles: 124505706 heartbeat IPC: 0.671931 cumulative IPC: 0.66341 (Simulation time: 2 hr 31 min 18 sec) 
Heartbeat CPU 0 instructions: 91000000 cycles: 125812849 heartbeat IPC: 0.765026 cumulative IPC: 0.664499 (Simulation time: 2 hr 32 min 32 sec) 
Heartbeat CPU 0 instructions: 92000000 cycles: 127372580 heartbeat IPC: 0.641136 cumulative IPC: 0.664204 (Simulation time: 2 hr 33 min 42 sec) 
Heartbeat CPU 0 instructions: 93000003 cycles: 128900411 heartbeat IPC: 0.654525 cumulative IPC: 0.664086 (Simulation time: 2 hr 34 min 49 sec) 
Heartbeat CPU 0 instructions: 94000002 cycles: 130209371 heartbeat IPC: 0.763965 cumulative IPC: 0.665121 (Simulation time: 2 hr 35 min 51 sec) 
Heartbeat CPU 0 instructions: 95000001 cycles: 131755563 heartbeat IPC: 0.64675 cumulative IPC: 0.664899 (Simulation time: 2 hr 37 min 0 sec) 
Heartbeat CPU 0 instructions: 96000000 cycles: 133296562 heartbeat IPC: 0.648929 cumulative IPC: 0.664709 (Simulation time: 2 hr 38 min 11 sec) 
Heartbeat CPU 0 instructions: 97000002 cycles: 134635790 heartbeat IPC: 0.7467 cumulative IPC: 0.665549 (Simulation time: 2 hr 39 min 15 sec) 
Heartbeat CPU 0 instructions: 98000000 cycles: 136222814 heartbeat IPC: 0.630109 cumulative IPC: 0.665123 (Simulation time: 2 hr 40 min 17 sec) 
Heartbeat CPU 0 instructions: 99000001 cycles: 137734731 heartbeat IPC: 0.661413 cumulative IPC: 0.665082 (Simulation time: 2 hr 41 min 15 sec) 
Heartbeat CPU 0 instructions: 100000000 cycles: 139057528 heartbeat IPC: 0.755973 cumulative IPC: 0.665971 (Simulation time: 2 hr 42 min 5 sec) 
Heartbeat CPU 0 instructions: 101000002 cycles: 140681958 heartbeat IPC: 0.615602 cumulative IPC: 0.665373 (Simulation time: 2 hr 42 min 59 sec) 
Heartbeat CPU 0 instructions: 102000002 cycles: 142215459 heartbeat IPC: 0.652103 cumulative IPC: 0.665226 (Simulation time: 2 hr 43 min 44 sec) 
Heartbeat CPU 0 instructions: 103000001 cycles: 143558141 heartbeat IPC: 0.744777 cumulative IPC: 0.665991 (Simulation time: 2 hr 44 min 29 sec) 
Heartbeat CPU 0 instructions: 104000000 cycles: 145174789 heartbeat IPC: 0.618563 cumulative IPC: 0.665448 (Simulation time: 2 hr 45 min 19 sec) 
Heartbeat CPU 0 instructions: 105000001 cycles: 146697410 heartbeat IPC: 0.656763 cumulative IPC: 0.665355 (Simulation time: 2 hr 46 min 3 sec) 
Heartbeat CPU 0 instructions: 106000001 cycles: 148039861 heartbeat IPC: 0.744906 cumulative IPC: 0.666096 (Simulation time: 2 hr 46 min 42 sec) 
Heartbeat CPU 0 instructions: 107000001 cycles: 149684357 heartbeat IPC: 0.608089 cumulative IPC: 0.665442 (Simulation time: 2 hr 47 min 27 sec) 
Heartbeat CPU 0 instructions: 108000000 cycles: 151173596 heartbeat IPC: 0.671483 cumulative IPC: 0.665503 (Simulation time: 2 hr 48 min 7 sec) 
Heartbeat CPU 0 instructions: 109000003 cycles: 152490473 heartbeat IPC: 0.759375 cumulative IPC: 0.666335 (Simulation time: 2 hr 48 min 45 sec) 
Heartbeat CPU 0 instructions: 110000001 cycles: 154184196 heartbeat IPC: 0.590414 cumulative IPC: 0.665479 (Simulation time: 2 hr 49 min 29 sec) 
Finished CPU 0 instructions: 100000003 cycles: 150267640 cummulative IPC: 0.665479 (Simulation time: 2 hr 49 min 29 sec) 

ChampSim completed all CPUs

Region of Interest Statistics

CPU 0 cummulative IPC: 0.665479 instructions: 100000003 cycles: 150267640
LLC TOTAL     ACCESS:    6065055  HIT:    1428303  MISS:    4636752
LLC LOAD      ACCESS:     443463  HIT:         17  MISS:     443446
LLC RFO       ACCESS:    2591753  HIT:     541001  MISS:    2050752
LLC PREFETCH  ACCESS:     437861  HIT:          3  MISS:     437858
LLC WRITEBACK ACCESS:    2591978  HIT:     887282  MISS:    1704696
