
*** ChampSim Multicore Out-of-Order Simulator ***

Warmup Instructions: 10000000
Simulation Instructions: 100000000
Configuration: 2
Number of CPUs: 1
LLC sets: 2048
LLC ways: 16
Off-chip DRAM Channels: 1 Width: 64-bit Data Rate: 1600 MT/s

CPU 0 runs /datasets/cs240c-wi22-a00-public/data/Assignment2-gz/calculix_2655B.trace.gz
CPU 0 L1D next line prefetcher
CPU 0 L2C IP-based stride prefetcher
config 2, num_core 1, llc_sets 2048
Heartbeat CPU 0 instructions: 1000003 cycles: 392356 heartbeat IPC: 2.54871 cumulative IPC: 2.54871 (Simulation time: 0 hr 1 min 9 sec) 
Heartbeat CPU 0 instructions: 2000001 cycles: 785077 heartbeat IPC: 2.54633 cumulative IPC: 2.54752 (Simulation time: 0 hr 2 min 21 sec) 
Heartbeat CPU 0 instructions: 3000002 cycles: 1177589 heartbeat IPC: 2.5477 cumulative IPC: 2.54758 (Simulation time: 0 hr 3 min 33 sec) 
Heartbeat CPU 0 instructions: 4000000 cycles: 1569351 heartbeat IPC: 2.55257 cumulative IPC: 2.54882 (Simulation time: 0 hr 4 min 41 sec) 
Heartbeat CPU 0 instructions: 5000003 cycles: 1961537 heartbeat IPC: 2.54982 cumulative IPC: 2.54902 (Simulation time: 0 hr 5 min 50 sec) 
Heartbeat CPU 0 instructions: 6000003 cycles: 2353701 heartbeat IPC: 2.54995 cumulative IPC: 2.54918 (Simulation time: 0 hr 6 min 59 sec) 
Heartbeat CPU 0 instructions: 7000002 cycles: 2745907 heartbeat IPC: 2.54968 cumulative IPC: 2.54925 (Simulation time: 0 hr 8 min 13 sec) 
Heartbeat CPU 0 instructions: 8000000 cycles: 3137899 heartbeat IPC: 2.55107 cumulative IPC: 2.54948 (Simulation time: 0 hr 9 min 31 sec) 
Heartbeat CPU 0 instructions: 9000001 cycles: 3530094 heartbeat IPC: 2.54975 cumulative IPC: 2.54951 (Simulation time: 0 hr 10 min 47 sec) 
Heartbeat CPU 0 instructions: 10000000 cycles: 3921608 heartbeat IPC: 2.55418 cumulative IPC: 2.54997 (Simulation time: 0 hr 12 min 9 sec) 

Warmup complete CPU 0 instructions: 10000004 cycles: 3921609 (Simulation time: 0 hr 12 min 9 sec) 

Heartbeat CPU 0 instructions: 11000001 cycles: 4443086 heartbeat IPC: 1.91763 cumulative IPC: 1.91762 (Simulation time: 0 hr 13 min 48 sec) 
Heartbeat CPU 0 instructions: 12000000 cycles: 4884073 heartbeat IPC: 2.26764 cumulative IPC: 2.078 (Simulation time: 0 hr 15 min 22 sec) 
Heartbeat CPU 0 instructions: 13000000 cycles: 5313995 heartbeat IPC: 2.326 cumulative IPC: 2.15457 (Simulation time: 0 hr 16 min 59 sec) 
Heartbeat CPU 0 instructions: 14000002 cycles: 5741884 heartbeat IPC: 2.33706 cumulative IPC: 2.19747 (Simulation time: 0 hr 18 min 34 sec) 
Heartbeat CPU 0 instructions: 15000001 cycles: 6169936 heartbeat IPC: 2.33616 cumulative IPC: 2.22387 (Simulation time: 0 hr 20 min 18 sec) 
Heartbeat CPU 0 instructions: 16000000 cycles: 6822494 heartbeat IPC: 1.53243 cumulative IPC: 2.06833 (Simulation time: 0 hr 22 min 0 sec) 
Heartbeat CPU 0 instructions: 17000000 cycles: 7324243 heartbeat IPC: 1.99303 cumulative IPC: 2.05723 (Simulation time: 0 hr 23 min 37 sec) 
Heartbeat CPU 0 instructions: 18000000 cycles: 7750652 heartbeat IPC: 2.34517 cumulative IPC: 2.08929 (Simulation time: 0 hr 25 min 8 sec) 
Heartbeat CPU 0 instructions: 19000000 cycles: 8175411 heartbeat IPC: 2.35428 cumulative IPC: 2.11575 (Simulation time: 0 hr 26 min 47 sec) 
Heartbeat CPU 0 instructions: 20000000 cycles: 8601167 heartbeat IPC: 2.34876 cumulative IPC: 2.13695 (Simulation time: 0 hr 28 min 25 sec) 
Heartbeat CPU 0 instructions: 21000002 cycles: 9027129 heartbeat IPC: 2.34763 cumulative IPC: 2.15453 (Simulation time: 0 hr 30 min 2 sec) 
Heartbeat CPU 0 instructions: 22000001 cycles: 9703832 heartbeat IPC: 1.47775 cumulative IPC: 2.07533 (Simulation time: 0 hr 31 min 44 sec) 
Heartbeat CPU 0 instructions: 23000000 cycles: 10275505 heartbeat IPC: 1.74925 cumulative IPC: 2.04599 (Simulation time: 0 hr 33 min 20 sec) 
Heartbeat CPU 0 instructions: 24000000 cycles: 10704992 heartbeat IPC: 2.32836 cumulative IPC: 2.06387 (Simulation time: 0 hr 34 min 50 sec) 
Heartbeat CPU 0 instructions: 25000003 cycles: 11130981 heartbeat IPC: 2.34749 cumulative IPC: 2.08062 (Simulation time: 0 hr 36 min 25 sec) 
Heartbeat CPU 0 instructions: 26000003 cycles: 11555411 heartbeat IPC: 2.3561 cumulative IPC: 2.09594 (Simulation time: 0 hr 37 min 53 sec) 
Heartbeat CPU 0 instructions: 27000000 cycles: 12010035 heartbeat IPC: 2.19961 cumulative IPC: 2.10177 (Simulation time: 0 hr 39 min 21 sec) 
Heartbeat CPU 0 instructions: 28000000 cycles: 12670187 heartbeat IPC: 1.5148 cumulative IPC: 2.05748 (Simulation time: 0 hr 40 min 56 sec) 
Heartbeat CPU 0 instructions: 29000003 cycles: 13288623 heartbeat IPC: 1.61699 cumulative IPC: 2.02839 (Simulation time: 0 hr 42 min 17 sec) 
Heartbeat CPU 0 instructions: 30000003 cycles: 13823281 heartbeat IPC: 1.87035 cumulative IPC: 2.01986 (Simulation time: 0 hr 43 min 42 sec) 
Heartbeat CPU 0 instructions: 31000002 cycles: 14253854 heartbeat IPC: 2.32248 cumulative IPC: 2.03247 (Simulation time: 0 hr 45 min 10 sec) 
Heartbeat CPU 0 instructions: 32000000 cycles: 14680424 heartbeat IPC: 2.34428 cumulative IPC: 2.04483 (Simulation time: 0 hr 46 min 44 sec) 
Heartbeat CPU 0 instructions: 33000003 cycles: 15167047 heartbeat IPC: 2.05499 cumulative IPC: 2.04527 (Simulation time: 0 hr 48 min 9 sec) 
Heartbeat CPU 0 instructions: 34000002 cycles: 15840678 heartbeat IPC: 1.48449 cumulative IPC: 2.01358 (Simulation time: 0 hr 49 min 42 sec) 
Heartbeat CPU 0 instructions: 35000001 cycles: 16482955 heartbeat IPC: 1.55696 cumulative IPC: 1.99023 (Simulation time: 0 hr 51 min 25 sec) 
Heartbeat CPU 0 instructions: 36000000 cycles: 17115570 heartbeat IPC: 1.58074 cumulative IPC: 1.9706 (Simulation time: 0 hr 53 min 6 sec) 
Heartbeat CPU 0 instructions: 37000002 cycles: 17750617 heartbeat IPC: 1.57469 cumulative IPC: 1.95242 (Simulation time: 0 hr 54 min 46 sec) 
Heartbeat CPU 0 instructions: 38000002 cycles: 18344637 heartbeat IPC: 1.68344 cumulative IPC: 1.94134 (Simulation time: 0 hr 56 min 13 sec) 
Heartbeat CPU 0 instructions: 39000002 cycles: 18974986 heartbeat IPC: 1.58642 cumulative IPC: 1.92648 (Simulation time: 0 hr 57 min 46 sec) 
Heartbeat CPU 0 instructions: 40000000 cycles: 19476647 heartbeat IPC: 1.99337 cumulative IPC: 1.92864 (Simulation time: 0 hr 59 min 10 sec) 
Heartbeat CPU 0 instructions: 41000003 cycles: 19963871 heartbeat IPC: 2.05245 cumulative IPC: 1.9324 (Simulation time: 1 hr 0 min 35 sec) 
Heartbeat CPU 0 instructions: 42000001 cycles: 20484115 heartbeat IPC: 1.92217 cumulative IPC: 1.93207 (Simulation time: 1 hr 2 min 2 sec) 
Heartbeat CPU 0 instructions: 43000001 cycles: 21014389 heartbeat IPC: 1.88582 cumulative IPC: 1.93064 (Simulation time: 1 hr 3 min 31 sec) 
Heartbeat CPU 0 instructions: 44000000 cycles: 21723218 heartbeat IPC: 1.41078 cumulative IPC: 1.90994 (Simulation time: 1 hr 5 min 2 sec) 
Heartbeat CPU 0 instructions: 45000002 cycles: 22189190 heartbeat IPC: 2.14606 cumulative IPC: 1.91596 (Simulation time: 1 hr 6 min 29 sec) 
Heartbeat CPU 0 instructions: 46000003 cycles: 22707328 heartbeat IPC: 1.92999 cumulative IPC: 1.91635 (Simulation time: 1 hr 8 min 3 sec) 
Heartbeat CPU 0 instructions: 47000000 cycles: 23214139 heartbeat IPC: 1.97312 cumulative IPC: 1.91784 (Simulation time: 1 hr 9 min 29 sec) 
Heartbeat CPU 0 instructions: 48000000 cycles: 23760209 heartbeat IPC: 1.83127 cumulative IPC: 1.91546 (Simulation time: 1 hr 11 min 1 sec) 
Heartbeat CPU 0 instructions: 49000000 cycles: 24207021 heartbeat IPC: 2.23808 cumulative IPC: 1.92256 (Simulation time: 1 hr 12 min 34 sec) 
Heartbeat CPU 0 instructions: 50000002 cycles: 24690844 heartbeat IPC: 2.06688 cumulative IPC: 1.92593 (Simulation time: 1 hr 13 min 59 sec) 
Heartbeat CPU 0 instructions: 51000001 cycles: 25170045 heartbeat IPC: 2.0868 cumulative IPC: 1.92955 (Simulation time: 1 hr 15 min 27 sec) 
Heartbeat CPU 0 instructions: 52000000 cycles: 25605877 heartbeat IPC: 2.29446 cumulative IPC: 1.93689 (Simulation time: 1 hr 17 min 7 sec) 
Heartbeat CPU 0 instructions: 53000002 cycles: 26137692 heartbeat IPC: 1.88036 cumulative IPC: 1.93553 (Simulation time: 1 hr 18 min 39 sec) 
Heartbeat CPU 0 instructions: 54000002 cycles: 26939856 heartbeat IPC: 1.24663 cumulative IPC: 1.91153 (Simulation time: 1 hr 20 min 20 sec) 
Heartbeat CPU 0 instructions: 55000002 cycles: 27475774 heartbeat IPC: 1.86596 cumulative IPC: 1.91049 (Simulation time: 1 hr 21 min 56 sec) 
Heartbeat CPU 0 instructions: 56000000 cycles: 27961204 heartbeat IPC: 2.06003 cumulative IPC: 1.91351 (Simulation time: 1 hr 23 min 35 sec) 
Heartbeat CPU 0 instructions: 57000000 cycles: 28502818 heartbeat IPC: 1.84633 cumulative IPC: 1.91203 (Simulation time: 1 hr 25 min 10 sec) 
Heartbeat CPU 0 instructions: 58000003 cycles: 28953597 heartbeat IPC: 2.21839 cumulative IPC: 1.91755 (Simulation time: 1 hr 26 min 44 sec) 
Heartbeat CPU 0 instructions: 59000001 cycles: 29488782 heartbeat IPC: 1.86851 cumulative IPC: 1.91652 (Simulation time: 1 hr 28 min 26 sec) 
Heartbeat CPU 0 instructions: 60000000 cycles: 29971144 heartbeat IPC: 2.07313 cumulative IPC: 1.91942 (Simulation time: 1 hr 30 min 3 sec) 
Heartbeat CPU 0 instructions: 61000002 cycles: 30487459 heartbeat IPC: 1.93681 cumulative IPC: 1.91976 (Simulation time: 1 hr 31 min 44 sec) 
Heartbeat CPU 0 instructions: 62000003 cycles: 31013186 heartbeat IPC: 1.90213 cumulative IPC: 1.91942 (Simulation time: 1 hr 33 min 20 sec) 
Heartbeat CPU 0 instructions: 63000003 cycles: 31700360 heartbeat IPC: 1.45524 cumulative IPC: 1.90793 (Simulation time: 1 hr 34 min 50 sec) 
Heartbeat CPU 0 instructions: 64000000 cycles: 32192454 heartbeat IPC: 2.03213 cumulative IPC: 1.91009 (Simulation time: 1 hr 36 min 12 sec) 
Heartbeat CPU 0 instructions: 65000001 cycles: 32724022 heartbeat IPC: 1.88123 cumulative IPC: 1.90956 (Simulation time: 1 hr 37 min 41 sec) 
Heartbeat CPU 0 instructions: 66000002 cycles: 33385212 heartbeat IPC: 1.51243 cumulative IPC: 1.90065 (Simulation time: 1 hr 39 min 14 sec) 
Heartbeat CPU 0 instructions: 67000003 cycles: 33991094 heartbeat IPC: 1.65049 cumulative IPC: 1.89561 (Simulation time: 1 hr 40 min 42 sec) 
Heartbeat CPU 0 instructions: 68000000 cycles: 34569586 heartbeat IPC: 1.72863 cumulative IPC: 1.89246 (Simulation time: 1 hr 42 min 13 sec) 
Heartbeat CPU 0 instructions: 69000001 cycles: 35143412 heartbeat IPC: 1.74269 cumulative IPC: 1.8897 (Simulation time: 1 hr 43 min 39 sec) 
Heartbeat CPU 0 instructions: 70000002 cycles: 35725442 heartbeat IPC: 1.71813 cumulative IPC: 1.88656 (Simulation time: 1 hr 44 min 59 sec) 
Heartbeat CPU 0 instructions: 71000003 cycles: 36298958 heartbeat IPC: 1.74363 cumulative IPC: 1.88403 (Simulation time: 1 hr 46 min 21 sec) 
Heartbeat CPU 0 instructions: 72000000 cycles: 36877047 heartbeat IPC: 1.72983 cumulative IPC: 1.88133 (Simulation time: 1 hr 47 min 42 sec) 
Heartbeat CPU 0 instructions: 73000000 cycles: 37456622 heartbeat IPC: 1.7254 cumulative IPC: 1.87863 (Simulation time: 1 hr 49 min 4 sec) 
Heartbeat CPU 0 instructions: 74000000 cycles: 38026613 heartbeat IPC: 1.75441 cumulative IPC: 1.87656 (Simulation time: 1 hr 50 min 23 sec) 
Heartbeat CPU 0 instructions: 75000000 cycles: 38665167 heartbeat IPC: 1.56604 cumulative IPC: 1.87085 (Simulation time: 1 hr 51 min 40 sec) 
Heartbeat CPU 0 instructions: 76000000 cycles: 39259546 heartbeat IPC: 1.68243 cumulative IPC: 1.86768 (Simulation time: 1 hr 52 min 51 sec) 
Heartbeat CPU 0 instructions: 77000003 cycles: 39852658 heartbeat IPC: 1.68603 cumulative IPC: 1.86468 (Simulation time: 1 hr 54 min 0 sec) 
Heartbeat CPU 0 instructions: 78000002 cycles: 40441269 heartbeat IPC: 1.69891 cumulative IPC: 1.86201 (Simulation time: 1 hr 55 min 14 sec) 
Heartbeat CPU 0 instructions: 79000001 cycles: 41024677 heartbeat IPC: 1.71406 cumulative IPC: 1.85968 (Simulation time: 1 hr 56 min 25 sec) 
Heartbeat CPU 0 instructions: 80000000 cycles: 41615295 heartbeat IPC: 1.69314 cumulative IPC: 1.85707 (Simulation time: 1 hr 57 min 42 sec) 
Heartbeat CPU 0 instructions: 81000001 cycles: 42202645 heartbeat IPC: 1.70256 cumulative IPC: 1.8547 (Simulation time: 1 hr 58 min 50 sec) 
Heartbeat CPU 0 instructions: 82000003 cycles: 42782048 heartbeat IPC: 1.72592 cumulative IPC: 1.85278 (Simulation time: 2 hr 0 min 2 sec) 
Heartbeat CPU 0 instructions: 83000003 cycles: 43362713 heartbeat IPC: 1.72216 cumulative IPC: 1.85086 (Simulation time: 2 hr 1 min 10 sec) 
Heartbeat CPU 0 instructions: 84000000 cycles: 43979889 heartbeat IPC: 1.62028 cumulative IPC: 1.84731 (Simulation time: 2 hr 2 min 22 sec) 
Heartbeat CPU 0 instructions: 85000002 cycles: 44529425 heartbeat IPC: 1.81972 cumulative IPC: 1.84694 (Simulation time: 2 hr 3 min 35 sec) 
Heartbeat CPU 0 instructions: 86000001 cycles: 45248942 heartbeat IPC: 1.38982 cumulative IPC: 1.83898 (Simulation time: 2 hr 4 min 54 sec) 
Heartbeat CPU 0 instructions: 87000001 cycles: 45836220 heartbeat IPC: 1.70277 cumulative IPC: 1.83707 (Simulation time: 2 hr 6 min 9 sec) 
Heartbeat CPU 0 instructions: 88000000 cycles: 46306031 heartbeat IPC: 2.12851 cumulative IPC: 1.8403 (Simulation time: 2 hr 7 min 17 sec) 
Heartbeat CPU 0 instructions: 89000000 cycles: 46770276 heartbeat IPC: 2.15404 cumulative IPC: 1.8437 (Simulation time: 2 hr 8 min 25 sec) 
Heartbeat CPU 0 instructions: 90000001 cycles: 47237995 heartbeat IPC: 2.13804 cumulative IPC: 1.84688 (Simulation time: 2 hr 9 min 36 sec) 
Heartbeat CPU 0 instructions: 91000002 cycles: 47785932 heartbeat IPC: 1.82503 cumulative IPC: 1.8466 (Simulation time: 2 hr 10 min 48 sec) 
Heartbeat CPU 0 instructions: 92000000 cycles: 48314764 heartbeat IPC: 1.89096 cumulative IPC: 1.84713 (Simulation time: 2 hr 12 min 2 sec) 
Heartbeat CPU 0 instructions: 93000000 cycles: 48847563 heartbeat IPC: 1.87688 cumulative IPC: 1.84748 (Simulation time: 2 hr 13 min 14 sec) 
Heartbeat CPU 0 instructions: 94000003 cycles: 49362441 heartbeat IPC: 1.94221 cumulative IPC: 1.84856 (Simulation time: 2 hr 14 min 31 sec) 
Heartbeat CPU 0 instructions: 95000003 cycles: 49912995 heartbeat IPC: 1.81635 cumulative IPC: 1.84817 (Simulation time: 2 hr 15 min 39 sec) 
Heartbeat CPU 0 instructions: 96000000 cycles: 50391862 heartbeat IPC: 2.08826 cumulative IPC: 1.85065 (Simulation time: 2 hr 16 min 48 sec) 
Heartbeat CPU 0 instructions: 97000002 cycles: 50884749 heartbeat IPC: 2.02887 cumulative IPC: 1.85252 (Simulation time: 2 hr 17 min 57 sec) 
Heartbeat CPU 0 instructions: 98000001 cycles: 51358416 heartbeat IPC: 2.11119 cumulative IPC: 1.8551 (Simulation time: 2 hr 19 min 3 sec) 
Heartbeat CPU 0 instructions: 99000001 cycles: 51907263 heartbeat IPC: 1.822 cumulative IPC: 1.85472 (Simulation time: 2 hr 20 min 14 sec) 
Heartbeat CPU 0 instructions: 100000000 cycles: 52395993 heartbeat IPC: 2.04612 cumulative IPC: 1.85665 (Simulation time: 2 hr 21 min 23 sec) 
Heartbeat CPU 0 instructions: 101000001 cycles: 52883042 heartbeat IPC: 2.05318 cumulative IPC: 1.85861 (Simulation time: 2 hr 22 min 27 sec) 
Heartbeat CPU 0 instructions: 102000003 cycles: 53354476 heartbeat IPC: 2.12119 cumulative IPC: 1.86111 (Simulation time: 2 hr 23 min 32 sec) 
Heartbeat CPU 0 instructions: 103000003 cycles: 53889199 heartbeat IPC: 1.87013 cumulative IPC: 1.86121 (Simulation time: 2 hr 24 min 41 sec) 
Heartbeat CPU 0 instructions: 104000000 cycles: 54446015 heartbeat IPC: 1.79592 cumulative IPC: 1.86049 (Simulation time: 2 hr 25 min 47 sec) 
Heartbeat CPU 0 instructions: 105000001 cycles: 54872594 heartbeat IPC: 2.34423 cumulative IPC: 1.86454 (Simulation time: 2 hr 26 min 52 sec) 
Heartbeat CPU 0 instructions: 106000002 cycles: 55320263 heartbeat IPC: 2.2338 cumulative IPC: 1.86775 (Simulation time: 2 hr 27 min 56 sec) 
Heartbeat CPU 0 instructions: 107000001 cycles: 55772591 heartbeat IPC: 2.21078 cumulative IPC: 1.87075 (Simulation time: 2 hr 28 min 55 sec) 
Heartbeat CPU 0 instructions: 108000000 cycles: 56191408 heartbeat IPC: 2.38768 cumulative IPC: 1.87489 (Simulation time: 2 hr 29 min 52 sec) 
Heartbeat CPU 0 instructions: 109000000 cycles: 56670029 heartbeat IPC: 2.08934 cumulative IPC: 1.87683 (Simulation time: 2 hr 30 min 49 sec) 
Heartbeat CPU 0 instructions: 110000000 cycles: 57088740 heartbeat IPC: 2.38828 cumulative IPC: 1.88086 (Simulation time: 2 hr 31 min 43 sec) 
Finished CPU 0 instructions: 100000000 cycles: 53167132 cummulative IPC: 1.88086 (Simulation time: 2 hr 31 min 43 sec) 

ChampSim completed all CPUs

Region of Interest Statistics

CPU 0 cummulative IPC: 1.88086 instructions: 100000000 cycles: 53167132
LLC TOTAL     ACCESS:     865128  HIT:     406509  MISS:     458619
LLC LOAD      ACCESS:     110531  HIT:      91580  MISS:      18951
LLC RFO       ACCESS:        417  HIT:        413  MISS:          4
LLC PREFETCH  ACCESS:     655869  HIT:     240232  MISS:     415637
LLC WRITEBACK ACCESS:      98311  HIT:      74284  MISS:      24027
