
*** ChampSim Multicore Out-of-Order Simulator ***

Warmup Instructions: 10000000
Simulation Instructions: 100000000
Configuration: 2
Number of CPUs: 1
LLC sets: 2048
LLC ways: 16
Off-chip DRAM Channels: 1 Width: 64-bit Data Rate: 1600 MT/s

CPU 0 runs /datasets/cs240c-wi22-a00-public/data/Assignment2-gz/sphinx3_1339B.trace.gz
CPU 0 L1D next line prefetcher
CPU 0 L2C IP-based stride prefetcher
Initialize SRRIP state
Heartbeat CPU 0 instructions: 1000000 cycles: 339022 heartbeat IPC: 2.94966 cumulative IPC: 2.94966 (Simulation time: 0 hr 0 min 27 sec) 
Heartbeat CPU 0 instructions: 2000001 cycles: 693441 heartbeat IPC: 2.82152 cumulative IPC: 2.88417 (Simulation time: 0 hr 0 min 56 sec) 
Heartbeat CPU 0 instructions: 3000000 cycles: 1084512 heartbeat IPC: 2.55708 cumulative IPC: 2.76622 (Simulation time: 0 hr 1 min 23 sec) 
Heartbeat CPU 0 instructions: 4000000 cycles: 1530015 heartbeat IPC: 2.24465 cumulative IPC: 2.61435 (Simulation time: 0 hr 1 min 48 sec) 
Heartbeat CPU 0 instructions: 5000003 cycles: 1869035 heartbeat IPC: 2.94969 cumulative IPC: 2.67518 (Simulation time: 0 hr 2 min 12 sec) 
Heartbeat CPU 0 instructions: 6000002 cycles: 2253257 heartbeat IPC: 2.60266 cumulative IPC: 2.66281 (Simulation time: 0 hr 2 min 41 sec) 
Heartbeat CPU 0 instructions: 7000001 cycles: 2717088 heartbeat IPC: 2.15596 cumulative IPC: 2.57629 (Simulation time: 0 hr 3 min 6 sec) 
Heartbeat CPU 0 instructions: 8000000 cycles: 3055956 heartbeat IPC: 2.951 cumulative IPC: 2.61784 (Simulation time: 0 hr 3 min 31 sec) 
Heartbeat CPU 0 instructions: 9000003 cycles: 3412564 heartbeat IPC: 2.80421 cumulative IPC: 2.63731 (Simulation time: 0 hr 3 min 58 sec) 
Heartbeat CPU 0 instructions: 10000001 cycles: 3799401 heartbeat IPC: 2.58506 cumulative IPC: 2.63199 (Simulation time: 0 hr 4 min 25 sec) 

Warmup complete CPU 0 instructions: 10000001 cycles: 3799401 (Simulation time: 0 hr 4 min 25 sec) 

Heartbeat CPU 0 instructions: 11000001 cycles: 4722626 heartbeat IPC: 1.08316 cumulative IPC: 1.08316 (Simulation time: 0 hr 4 min 54 sec) 
Heartbeat CPU 0 instructions: 12000000 cycles: 5617604 heartbeat IPC: 1.11734 cumulative IPC: 1.09999 (Simulation time: 0 hr 5 min 25 sec) 
Heartbeat CPU 0 instructions: 13000000 cycles: 7057495 heartbeat IPC: 0.694497 cumulative IPC: 0.920783 (Simulation time: 0 hr 6 min 4 sec) 
Heartbeat CPU 0 instructions: 14000000 cycles: 7953135 heartbeat IPC: 1.11652 cumulative IPC: 0.962989 (Simulation time: 0 hr 6 min 37 sec) 
Heartbeat CPU 0 instructions: 15000001 cycles: 8863957 heartbeat IPC: 1.09791 cumulative IPC: 0.987253 (Simulation time: 0 hr 7 min 7 sec) 
Heartbeat CPU 0 instructions: 16000000 cycles: 10018896 heartbeat IPC: 0.865846 cumulative IPC: 0.964708 (Simulation time: 0 hr 7 min 38 sec) 
Heartbeat CPU 0 instructions: 17000001 cycles: 11432073 heartbeat IPC: 0.707626 cumulative IPC: 0.91711 (Simulation time: 0 hr 8 min 12 sec) 
Heartbeat CPU 0 instructions: 18000003 cycles: 12504781 heartbeat IPC: 0.932222 cumulative IPC: 0.918972 (Simulation time: 0 hr 8 min 43 sec) 
Heartbeat CPU 0 instructions: 19000002 cycles: 13380349 heartbeat IPC: 1.14211 cumulative IPC: 0.939364 (Simulation time: 0 hr 9 min 13 sec) 
Heartbeat CPU 0 instructions: 20000000 cycles: 14283065 heartbeat IPC: 1.10777 cumulative IPC: 0.953865 (Simulation time: 0 hr 9 min 45 sec) 
Heartbeat CPU 0 instructions: 21000000 cycles: 15621346 heartbeat IPC: 0.747227 cumulative IPC: 0.930473 (Simulation time: 0 hr 10 min 17 sec) 
Heartbeat CPU 0 instructions: 22000000 cycles: 16643979 heartbeat IPC: 0.977868 cumulative IPC: 0.934246 (Simulation time: 0 hr 10 min 46 sec) 
Heartbeat CPU 0 instructions: 23000003 cycles: 17545552 heartbeat IPC: 1.10918 cumulative IPC: 0.945719 (Simulation time: 0 hr 11 min 17 sec) 
Heartbeat CPU 0 instructions: 24000000 cycles: 18562417 heartbeat IPC: 0.983412 cumulative IPC: 0.948316 (Simulation time: 0 hr 11 min 48 sec) 
Heartbeat CPU 0 instructions: 25000001 cycles: 19565004 heartbeat IPC: 0.997421 cumulative IPC: 0.951438 (Simulation time: 0 hr 12 min 17 sec) 
Heartbeat CPU 0 instructions: 26000003 cycles: 20434698 heartbeat IPC: 1.14983 cumulative IPC: 0.96181 (Simulation time: 0 hr 12 min 49 sec) 
Heartbeat CPU 0 instructions: 27000002 cycles: 21325340 heartbeat IPC: 1.12278 cumulative IPC: 0.969991 (Simulation time: 0 hr 13 min 19 sec) 
Heartbeat CPU 0 instructions: 28000000 cycles: 22355274 heartbeat IPC: 0.970934 cumulative IPC: 0.970043 (Simulation time: 0 hr 13 min 51 sec) 
Heartbeat CPU 0 instructions: 29000003 cycles: 23224493 heartbeat IPC: 1.15046 cumulative IPC: 0.978116 (Simulation time: 0 hr 14 min 22 sec) 
Heartbeat CPU 0 instructions: 30000003 cycles: 24103756 heartbeat IPC: 1.13732 cumulative IPC: 0.98501 (Simulation time: 0 hr 14 min 54 sec) 
Heartbeat CPU 0 instructions: 31000002 cycles: 25089225 heartbeat IPC: 1.01474 cumulative IPC: 0.986387 (Simulation time: 0 hr 15 min 27 sec) 
Heartbeat CPU 0 instructions: 32000000 cycles: 25996582 heartbeat IPC: 1.1021 cumulative IPC: 0.991117 (Simulation time: 0 hr 16 min 0 sec) 
Heartbeat CPU 0 instructions: 33000001 cycles: 26877629 heartbeat IPC: 1.13501 cumulative IPC: 0.99661 (Simulation time: 0 hr 16 min 33 sec) 
Heartbeat CPU 0 instructions: 34000001 cycles: 28361401 heartbeat IPC: 0.673958 cumulative IPC: 0.977119 (Simulation time: 0 hr 17 min 7 sec) 
Heartbeat CPU 0 instructions: 35000002 cycles: 29308389 heartbeat IPC: 1.05598 cumulative IPC: 0.980047 (Simulation time: 0 hr 17 min 38 sec) 
Heartbeat CPU 0 instructions: 36000000 cycles: 30220311 heartbeat IPC: 1.09658 cumulative IPC: 0.984069 (Simulation time: 0 hr 18 min 9 sec) 
Heartbeat CPU 0 instructions: 37000003 cycles: 31319411 heartbeat IPC: 0.909838 cumulative IPC: 0.981104 (Simulation time: 0 hr 18 min 40 sec) 
Heartbeat CPU 0 instructions: 38000000 cycles: 32617300 heartbeat IPC: 0.77048 cumulative IPC: 0.971618 (Simulation time: 0 hr 19 min 14 sec) 
Heartbeat CPU 0 instructions: 39000003 cycles: 33531320 heartbeat IPC: 1.09407 cumulative IPC: 0.975383 (Simulation time: 0 hr 19 min 45 sec) 
Heartbeat CPU 0 instructions: 40000000 cycles: 34428839 heartbeat IPC: 1.11418 cumulative IPC: 0.97945 (Simulation time: 0 hr 20 min 15 sec) 
Heartbeat CPU 0 instructions: 41000000 cycles: 35840845 heartbeat IPC: 0.708212 cumulative IPC: 0.967497 (Simulation time: 0 hr 20 min 47 sec) 
Heartbeat CPU 0 instructions: 42000002 cycles: 36749668 heartbeat IPC: 1.10033 cumulative IPC: 0.971161 (Simulation time: 0 hr 21 min 16 sec) 
Heartbeat CPU 0 instructions: 43000001 cycles: 37661632 heartbeat IPC: 1.09653 cumulative IPC: 0.974537 (Simulation time: 0 hr 21 min 46 sec) 
Heartbeat CPU 0 instructions: 44000000 cycles: 38842796 heartbeat IPC: 0.846622 cumulative IPC: 0.970226 (Simulation time: 0 hr 22 min 19 sec) 
Heartbeat CPU 0 instructions: 45000002 cycles: 39925278 heartbeat IPC: 0.923805 cumulative IPC: 0.968835 (Simulation time: 0 hr 22 min 48 sec) 
Heartbeat CPU 0 instructions: 46000003 cycles: 40805831 heartbeat IPC: 1.13565 cumulative IPC: 0.972804 (Simulation time: 0 hr 23 min 18 sec) 
Heartbeat CPU 0 instructions: 47000001 cycles: 41708725 heartbeat IPC: 1.10755 cumulative IPC: 0.976013 (Simulation time: 0 hr 23 min 45 sec) 
Heartbeat CPU 0 instructions: 48000000 cycles: 42779825 heartbeat IPC: 0.933619 cumulative IPC: 0.974848 (Simulation time: 0 hr 24 min 14 sec) 
Heartbeat CPU 0 instructions: 49000000 cycles: 43683380 heartbeat IPC: 1.10674 cumulative IPC: 0.977836 (Simulation time: 0 hr 24 min 42 sec) 
Heartbeat CPU 0 instructions: 50000000 cycles: 44568025 heartbeat IPC: 1.1304 cumulative IPC: 0.981147 (Simulation time: 0 hr 25 min 11 sec) 
Heartbeat CPU 0 instructions: 51000001 cycles: 45922405 heartbeat IPC: 0.738346 cumulative IPC: 0.97334 (Simulation time: 0 hr 25 min 41 sec) 
Heartbeat CPU 0 instructions: 52000000 cycles: 46794525 heartbeat IPC: 1.14663 cumulative IPC: 0.976855 (Simulation time: 0 hr 26 min 10 sec) 
Heartbeat CPU 0 instructions: 53000002 cycles: 47699808 heartbeat IPC: 1.10463 cumulative IPC: 0.97949 (Simulation time: 0 hr 26 min 40 sec) 
Heartbeat CPU 0 instructions: 54000003 cycles: 49011392 heartbeat IPC: 0.762438 cumulative IPC: 0.973193 (Simulation time: 0 hr 27 min 9 sec) 
Heartbeat CPU 0 instructions: 55000001 cycles: 49930781 heartbeat IPC: 1.08768 cumulative IPC: 0.975475 (Simulation time: 0 hr 27 min 35 sec) 
Heartbeat CPU 0 instructions: 56000000 cycles: 50835378 heartbeat IPC: 1.10546 cumulative IPC: 0.977975 (Simulation time: 0 hr 28 min 5 sec) 
Heartbeat CPU 0 instructions: 57000000 cycles: 51903510 heartbeat IPC: 0.936214 cumulative IPC: 0.977048 (Simulation time: 0 hr 28 min 34 sec) 
Heartbeat CPU 0 instructions: 58000000 cycles: 53084941 heartbeat IPC: 0.846431 cumulative IPC: 0.973916 (Simulation time: 0 hr 29 min 2 sec) 
Heartbeat CPU 0 instructions: 59000001 cycles: 53972035 heartbeat IPC: 1.12728 cumulative IPC: 0.976628 (Simulation time: 0 hr 29 min 33 sec) 
Heartbeat CPU 0 instructions: 60000000 cycles: 54866652 heartbeat IPC: 1.1178 cumulative IPC: 0.979101 (Simulation time: 0 hr 30 min 6 sec) 
Heartbeat CPU 0 instructions: 61000000 cycles: 56367336 heartbeat IPC: 0.666363 cumulative IPC: 0.970173 (Simulation time: 0 hr 30 min 36 sec) 
Heartbeat CPU 0 instructions: 62000002 cycles: 57510954 heartbeat IPC: 0.87442 cumulative IPC: 0.968134 (Simulation time: 0 hr 31 min 6 sec) 
Heartbeat CPU 0 instructions: 63000003 cycles: 58362622 heartbeat IPC: 1.17417 cumulative IPC: 0.97135 (Simulation time: 0 hr 31 min 35 sec) 
Heartbeat CPU 0 instructions: 64000000 cycles: 59268503 heartbeat IPC: 1.10389 cumulative IPC: 0.973515 (Simulation time: 0 hr 32 min 6 sec) 
Heartbeat CPU 0 instructions: 65000000 cycles: 60485449 heartbeat IPC: 0.821729 cumulative IPC: 0.970256 (Simulation time: 0 hr 32 min 36 sec) 
Heartbeat CPU 0 instructions: 66000001 cycles: 61513566 heartbeat IPC: 0.972653 cumulative IPC: 0.970299 (Simulation time: 0 hr 33 min 6 sec) 
Heartbeat CPU 0 instructions: 67000000 cycles: 62404655 heartbeat IPC: 1.12222 cumulative IPC: 0.972609 (Simulation time: 0 hr 33 min 38 sec) 
Heartbeat CPU 0 instructions: 68000000 cycles: 63374431 heartbeat IPC: 1.03117 cumulative IPC: 0.973562 (Simulation time: 0 hr 34 min 6 sec) 
Heartbeat CPU 0 instructions: 69000003 cycles: 64636475 heartbeat IPC: 0.792368 cumulative IPC: 0.969803 (Simulation time: 0 hr 34 min 35 sec) 
Heartbeat CPU 0 instructions: 70000001 cycles: 65550574 heartbeat IPC: 1.09397 cumulative IPC: 0.971641 (Simulation time: 0 hr 35 min 3 sec) 
Heartbeat CPU 0 instructions: 71000001 cycles: 66444830 heartbeat IPC: 1.11825 cumulative IPC: 0.973734 (Simulation time: 0 hr 35 min 32 sec) 
Heartbeat CPU 0 instructions: 72000000 cycles: 67825552 heartbeat IPC: 0.724258 cumulative IPC: 0.968354 (Simulation time: 0 hr 36 min 6 sec) 
Heartbeat CPU 0 instructions: 73000001 cycles: 68690380 heartbeat IPC: 1.1563 cumulative IPC: 0.970859 (Simulation time: 0 hr 36 min 33 sec) 
Heartbeat CPU 0 instructions: 74000001 cycles: 69594997 heartbeat IPC: 1.10544 cumulative IPC: 0.972709 (Simulation time: 0 hr 37 min 3 sec) 
Heartbeat CPU 0 instructions: 75000003 cycles: 70845937 heartbeat IPC: 0.7994 cumulative IPC: 0.969476 (Simulation time: 0 hr 37 min 32 sec) 
Heartbeat CPU 0 instructions: 76000000 cycles: 71820678 heartbeat IPC: 1.02591 cumulative IPC: 0.970285 (Simulation time: 0 hr 37 min 59 sec) 
Heartbeat CPU 0 instructions: 77000002 cycles: 72723436 heartbeat IPC: 1.10772 cumulative IPC: 0.972085 (Simulation time: 0 hr 38 min 28 sec) 
Heartbeat CPU 0 instructions: 78000002 cycles: 73736721 heartbeat IPC: 0.986889 cumulative IPC: 0.972299 (Simulation time: 0 hr 38 min 54 sec) 
Heartbeat CPU 0 instructions: 79000001 cycles: 74932664 heartbeat IPC: 0.836159 cumulative IPC: 0.97001 (Simulation time: 0 hr 39 min 21 sec) 
Heartbeat CPU 0 instructions: 80000000 cycles: 75831574 heartbeat IPC: 1.11246 cumulative IPC: 0.971788 (Simulation time: 0 hr 39 min 47 sec) 
Heartbeat CPU 0 instructions: 81000001 cycles: 76726523 heartbeat IPC: 1.11738 cumulative IPC: 0.973575 (Simulation time: 0 hr 40 min 14 sec) 
Heartbeat CPU 0 instructions: 82000000 cycles: 78064934 heartbeat IPC: 0.747154 cumulative IPC: 0.969494 (Simulation time: 0 hr 40 min 42 sec) 
Heartbeat CPU 0 instructions: 83000001 cycles: 78945767 heartbeat IPC: 1.13529 cumulative IPC: 0.971438 (Simulation time: 0 hr 41 min 10 sec) 
Heartbeat CPU 0 instructions: 84000000 cycles: 79847128 heartbeat IPC: 1.10943 cumulative IPC: 0.973073 (Simulation time: 0 hr 41 min 41 sec) 
Heartbeat CPU 0 instructions: 85000002 cycles: 81161139 heartbeat IPC: 0.76103 cumulative IPC: 0.969472 (Simulation time: 0 hr 42 min 14 sec) 
Heartbeat CPU 0 instructions: 86000003 cycles: 82072451 heartbeat IPC: 1.09732 cumulative IPC: 0.97096 (Simulation time: 0 hr 42 min 44 sec) 
Heartbeat CPU 0 instructions: 87000001 cycles: 82985350 heartbeat IPC: 1.09541 cumulative IPC: 0.972395 (Simulation time: 0 hr 43 min 16 sec) 
Heartbeat CPU 0 instructions: 88000000 cycles: 84128001 heartbeat IPC: 0.875157 cumulative IPC: 0.971012 (Simulation time: 0 hr 43 min 46 sec) 
Heartbeat CPU 0 instructions: 89000000 cycles: 85213128 heartbeat IPC: 0.921551 cumulative IPC: 0.970352 (Simulation time: 0 hr 44 min 16 sec) 
Heartbeat CPU 0 instructions: 90000000 cycles: 86099062 heartbeat IPC: 1.12875 cumulative IPC: 0.972057 (Simulation time: 0 hr 44 min 46 sec) 
Heartbeat CPU 0 instructions: 91000000 cycles: 87004799 heartbeat IPC: 1.10407 cumulative IPC: 0.973495 (Simulation time: 0 hr 45 min 16 sec) 
Heartbeat CPU 0 instructions: 92000000 cycles: 88343240 heartbeat IPC: 0.747138 cumulative IPC: 0.969911 (Simulation time: 0 hr 45 min 44 sec) 
Heartbeat CPU 0 instructions: 93000001 cycles: 89229647 heartbeat IPC: 1.12815 cumulative IPC: 0.971553 (Simulation time: 0 hr 46 min 12 sec) 
Heartbeat CPU 0 instructions: 94000000 cycles: 90127886 heartbeat IPC: 1.11329 cumulative IPC: 0.973028 (Simulation time: 0 hr 46 min 40 sec) 
Heartbeat CPU 0 instructions: 95000002 cycles: 91516383 heartbeat IPC: 0.720205 cumulative IPC: 0.969026 (Simulation time: 0 hr 47 min 8 sec) 
Heartbeat CPU 0 instructions: 96000000 cycles: 92392933 heartbeat IPC: 1.14083 cumulative IPC: 0.970725 (Simulation time: 0 hr 47 min 35 sec) 
Heartbeat CPU 0 instructions: 97000002 cycles: 93299417 heartbeat IPC: 1.10317 cumulative IPC: 0.972067 (Simulation time: 0 hr 48 min 3 sec) 
Heartbeat CPU 0 instructions: 98000000 cycles: 94525177 heartbeat IPC: 0.815819 cumulative IPC: 0.969956 (Simulation time: 0 hr 48 min 31 sec) 
Heartbeat CPU 0 instructions: 99000003 cycles: 95690453 heartbeat IPC: 0.858168 cumulative IPC: 0.968538 (Simulation time: 0 hr 48 min 59 sec) 
Heartbeat CPU 0 instructions: 100000000 cycles: 96585082 heartbeat IPC: 1.11778 cumulative IPC: 0.969977 (Simulation time: 0 hr 49 min 25 sec) 
Heartbeat CPU 0 instructions: 101000000 cycles: 97491111 heartbeat IPC: 1.10372 cumulative IPC: 0.971271 (Simulation time: 0 hr 49 min 52 sec) 
Heartbeat CPU 0 instructions: 102000001 cycles: 99126353 heartbeat IPC: 0.611531 cumulative IPC: 0.9651 (Simulation time: 0 hr 50 min 20 sec) 
Heartbeat CPU 0 instructions: 103000000 cycles: 100411095 heartbeat IPC: 0.778366 cumulative IPC: 0.962616 (Simulation time: 0 hr 50 min 47 sec) 
Heartbeat CPU 0 instructions: 104000000 cycles: 101374817 heartbeat IPC: 1.03764 cumulative IPC: 0.963357 (Simulation time: 0 hr 51 min 13 sec) 
Heartbeat CPU 0 instructions: 105000003 cycles: 102275555 heartbeat IPC: 1.1102 cumulative IPC: 0.964701 (Simulation time: 0 hr 51 min 40 sec) 
Heartbeat CPU 0 instructions: 106000000 cycles: 103217198 heartbeat IPC: 1.06197 cumulative IPC: 0.965622 (Simulation time: 0 hr 52 min 7 sec) 
Heartbeat CPU 0 instructions: 107000001 cycles: 104895356 heartbeat IPC: 0.595892 cumulative IPC: 0.959484 (Simulation time: 0 hr 52 min 41 sec) 
Heartbeat CPU 0 instructions: 108000000 cycles: 105839418 heartbeat IPC: 1.05925 cumulative IPC: 0.960407 (Simulation time: 0 hr 53 min 11 sec) 
Heartbeat CPU 0 instructions: 109000000 cycles: 106755874 heartbeat IPC: 1.09116 cumulative IPC: 0.961571 (Simulation time: 0 hr 53 min 40 sec) 
Heartbeat CPU 0 instructions: 110000003 cycles: 107994377 heartbeat IPC: 0.807429 cumulative IPC: 0.959739 (Simulation time: 0 hr 54 min 9 sec) 
Finished CPU 0 instructions: 100000002 cycles: 104194976 cummulative IPC: 0.959739 (Simulation time: 0 hr 54 min 9 sec) 

ChampSim completed all CPUs

Region of Interest Statistics

CPU 0 cummulative IPC: 0.959739 instructions: 100000002 cycles: 104194976
LLC TOTAL     ACCESS:    1573833  HIT:     495454  MISS:    1078379
LLC LOAD      ACCESS:     202093  HIT:     117109  MISS:      84984
LLC RFO       ACCESS:     111591  HIT:      96760  MISS:      14831
LLC PREFETCH  ACCESS:    1126996  HIT:     158822  MISS:     968174
LLC WRITEBACK ACCESS:     133153  HIT:     122763  MISS:      10390
Insertion Distribution: 
	LOAD 3839 0 20414 73849 
	RFO 1408 0 5343 12665 
	PREF 0 1918 44448 1030057 
	WRITEBACK 0 0 0 11734 
Total Prefetch Downgrades: 3164
