
*** ChampSim Multicore Out-of-Order Simulator ***

Warmup Instructions: 10000000
Simulation Instructions: 100000000
Configuration: 2
Number of CPUs: 1
LLC sets: 2048
LLC ways: 16
Off-chip DRAM Channels: 1 Width: 64-bit Data Rate: 1600 MT/s

CPU 0 runs /datasets/cs240c-wi22-a00-public/data/Assignment2-gz/cactusADM_1039B.trace.gz
CPU 0 L1D next line prefetcher
CPU 0 L2C IP-based stride prefetcher
Initialize SRRIP state
Heartbeat CPU 0 instructions: 1000000 cycles: 595518 heartbeat IPC: 1.67921 cumulative IPC: 1.67921 (Simulation time: 0 hr 0 min 38 sec) 
Heartbeat CPU 0 instructions: 2000002 cycles: 1190937 heartbeat IPC: 1.67949 cumulative IPC: 1.67935 (Simulation time: 0 hr 1 min 15 sec) 
Heartbeat CPU 0 instructions: 3000003 cycles: 1786622 heartbeat IPC: 1.67874 cumulative IPC: 1.67915 (Simulation time: 0 hr 1 min 53 sec) 
Heartbeat CPU 0 instructions: 4000000 cycles: 2382046 heartbeat IPC: 1.67947 cumulative IPC: 1.67923 (Simulation time: 0 hr 2 min 30 sec) 
Heartbeat CPU 0 instructions: 5000001 cycles: 2977457 heartbeat IPC: 1.67951 cumulative IPC: 1.67929 (Simulation time: 0 hr 3 min 9 sec) 
Heartbeat CPU 0 instructions: 6000002 cycles: 3572930 heartbeat IPC: 1.67934 cumulative IPC: 1.67929 (Simulation time: 0 hr 3 min 45 sec) 
Heartbeat CPU 0 instructions: 7000000 cycles: 4168306 heartbeat IPC: 1.67961 cumulative IPC: 1.67934 (Simulation time: 0 hr 4 min 21 sec) 
Heartbeat CPU 0 instructions: 8000000 cycles: 4763681 heartbeat IPC: 1.67961 cumulative IPC: 1.67937 (Simulation time: 0 hr 4 min 56 sec) 
Heartbeat CPU 0 instructions: 9000002 cycles: 5359336 heartbeat IPC: 1.67883 cumulative IPC: 1.67931 (Simulation time: 0 hr 5 min 35 sec) 
Heartbeat CPU 0 instructions: 10000003 cycles: 5974113 heartbeat IPC: 1.62661 cumulative IPC: 1.67389 (Simulation time: 0 hr 6 min 17 sec) 

Warmup complete CPU 0 instructions: 10000003 cycles: 5974113 (Simulation time: 0 hr 6 min 17 sec) 

Heartbeat CPU 0 instructions: 11000003 cycles: 12159888 heartbeat IPC: 0.161661 cumulative IPC: 0.161661 (Simulation time: 0 hr 7 min 5 sec) 
Heartbeat CPU 0 instructions: 12000000 cycles: 13902637 heartbeat IPC: 0.573804 cumulative IPC: 0.252253 (Simulation time: 0 hr 7 min 45 sec) 
Heartbeat CPU 0 instructions: 13000002 cycles: 15571104 heartbeat IPC: 0.599354 cumulative IPC: 0.312598 (Simulation time: 0 hr 8 min 27 sec) 
Heartbeat CPU 0 instructions: 14000001 cycles: 17279279 heartbeat IPC: 0.58542 cumulative IPC: 0.35382 (Simulation time: 0 hr 9 min 6 sec) 
Heartbeat CPU 0 instructions: 15000002 cycles: 19023115 heartbeat IPC: 0.573449 cumulative IPC: 0.383171 (Simulation time: 0 hr 9 min 52 sec) 
Heartbeat CPU 0 instructions: 16000000 cycles: 20769836 heartbeat IPC: 0.5725 cumulative IPC: 0.405522 (Simulation time: 0 hr 10 min 33 sec) 
Heartbeat CPU 0 instructions: 17000003 cycles: 22494437 heartbeat IPC: 0.579846 cumulative IPC: 0.423721 (Simulation time: 0 hr 11 min 15 sec) 
Heartbeat CPU 0 instructions: 18000002 cycles: 24148959 heartbeat IPC: 0.604404 cumulative IPC: 0.440169 (Simulation time: 0 hr 11 min 53 sec) 
Heartbeat CPU 0 instructions: 19000003 cycles: 25885432 heartbeat IPC: 0.575881 cumulative IPC: 0.452004 (Simulation time: 0 hr 12 min 32 sec) 
Heartbeat CPU 0 instructions: 20000000 cycles: 27629233 heartbeat IPC: 0.573458 cumulative IPC: 0.461784 (Simulation time: 0 hr 13 min 9 sec) 
Heartbeat CPU 0 instructions: 21000002 cycles: 29372896 heartbeat IPC: 0.573506 cumulative IPC: 0.47011 (Simulation time: 0 hr 13 min 48 sec) 
Heartbeat CPU 0 instructions: 22000003 cycles: 31063864 heartbeat IPC: 0.591378 cumulative IPC: 0.478283 (Simulation time: 0 hr 14 min 28 sec) 
Heartbeat CPU 0 instructions: 23000001 cycles: 32749138 heartbeat IPC: 0.593374 cumulative IPC: 0.485527 (Simulation time: 0 hr 15 min 6 sec) 
Heartbeat CPU 0 instructions: 24000000 cycles: 39467082 heartbeat IPC: 0.148855 cumulative IPC: 0.417998 (Simulation time: 0 hr 15 min 56 sec) 
Heartbeat CPU 0 instructions: 25000002 cycles: 41207279 heartbeat IPC: 0.574649 cumulative IPC: 0.425735 (Simulation time: 0 hr 16 min 36 sec) 
Heartbeat CPU 0 instructions: 26000002 cycles: 42934421 heartbeat IPC: 0.578991 cumulative IPC: 0.432897 (Simulation time: 0 hr 17 min 12 sec) 
Heartbeat CPU 0 instructions: 27000002 cycles: 44601422 heartbeat IPC: 0.59988 cumulative IPC: 0.440103 (Simulation time: 0 hr 17 min 52 sec) 
Heartbeat CPU 0 instructions: 28000000 cycles: 46333684 heartbeat IPC: 0.577279 cumulative IPC: 0.445991 (Simulation time: 0 hr 18 min 35 sec) 
Heartbeat CPU 0 instructions: 29000000 cycles: 48077197 heartbeat IPC: 0.573555 cumulative IPC: 0.451273 (Simulation time: 0 hr 19 min 15 sec) 
Heartbeat CPU 0 instructions: 30000003 cycles: 49817949 heartbeat IPC: 0.574466 cumulative IPC: 0.456164 (Simulation time: 0 hr 20 min 0 sec) 
Heartbeat CPU 0 instructions: 31000001 cycles: 51516143 heartbeat IPC: 0.58886 cumulative IPC: 0.461112 (Simulation time: 0 hr 20 min 42 sec) 
Heartbeat CPU 0 instructions: 32000000 cycles: 53194023 heartbeat IPC: 0.59599 cumulative IPC: 0.465905 (Simulation time: 0 hr 21 min 29 sec) 
Heartbeat CPU 0 instructions: 33000001 cycles: 54934177 heartbeat IPC: 0.574662 cumulative IPC: 0.469771 (Simulation time: 0 hr 22 min 9 sec) 
Heartbeat CPU 0 instructions: 34000000 cycles: 56676894 heartbeat IPC: 0.573816 cumulative IPC: 0.473347 (Simulation time: 0 hr 22 min 47 sec) 
Heartbeat CPU 0 instructions: 35000001 cycles: 58414673 heartbeat IPC: 0.575448 cumulative IPC: 0.47673 (Simulation time: 0 hr 23 min 27 sec) 
Heartbeat CPU 0 instructions: 36000000 cycles: 60080464 heartbeat IPC: 0.600315 cumulative IPC: 0.480535 (Simulation time: 0 hr 24 min 6 sec) 
Heartbeat CPU 0 instructions: 37000002 cycles: 66748779 heartbeat IPC: 0.149963 cumulative IPC: 0.444264 (Simulation time: 0 hr 24 min 51 sec) 
Heartbeat CPU 0 instructions: 38000001 cycles: 68490793 heartbeat IPC: 0.574048 cumulative IPC: 0.44788 (Simulation time: 0 hr 25 min 33 sec) 
Heartbeat CPU 0 instructions: 39000002 cycles: 70234329 heartbeat IPC: 0.573548 cumulative IPC: 0.45129 (Simulation time: 0 hr 26 min 13 sec) 
Heartbeat CPU 0 instructions: 40000000 cycles: 71935037 heartbeat IPC: 0.587989 cumulative IPC: 0.454815 (Simulation time: 0 hr 26 min 52 sec) 
Heartbeat CPU 0 instructions: 41000003 cycles: 73607619 heartbeat IPC: 0.59788 cumulative IPC: 0.458353 (Simulation time: 0 hr 27 min 28 sec) 
Heartbeat CPU 0 instructions: 42000000 cycles: 75347219 heartbeat IPC: 0.574843 cumulative IPC: 0.461274 (Simulation time: 0 hr 28 min 6 sec) 
Heartbeat CPU 0 instructions: 43000000 cycles: 77090989 heartbeat IPC: 0.57347 cumulative IPC: 0.464025 (Simulation time: 0 hr 28 min 45 sec) 
Heartbeat CPU 0 instructions: 44000000 cycles: 78830738 heartbeat IPC: 0.574796 cumulative IPC: 0.46667 (Simulation time: 0 hr 29 min 27 sec) 
Heartbeat CPU 0 instructions: 45000000 cycles: 80502050 heartbeat IPC: 0.598332 cumulative IPC: 0.469623 (Simulation time: 0 hr 30 min 3 sec) 
Heartbeat CPU 0 instructions: 46000003 cycles: 82209491 heartbeat IPC: 0.585674 cumulative IPC: 0.472222 (Simulation time: 0 hr 30 min 40 sec) 
Heartbeat CPU 0 instructions: 47000001 cycles: 83952831 heartbeat IPC: 0.57361 cumulative IPC: 0.474488 (Simulation time: 0 hr 31 min 15 sec) 
Heartbeat CPU 0 instructions: 48000000 cycles: 85696214 heartbeat IPC: 0.573597 cumulative IPC: 0.476656 (Simulation time: 0 hr 31 min 53 sec) 
Heartbeat CPU 0 instructions: 49000001 cycles: 87423338 heartbeat IPC: 0.578998 cumulative IPC: 0.478826 (Simulation time: 0 hr 32 min 34 sec) 
Heartbeat CPU 0 instructions: 50000000 cycles: 94142036 heartbeat IPC: 0.148838 cumulative IPC: 0.45368 (Simulation time: 0 hr 33 min 23 sec) 
Heartbeat CPU 0 instructions: 51000003 cycles: 95907419 heartbeat IPC: 0.566451 cumulative IPC: 0.455893 (Simulation time: 0 hr 34 min 1 sec) 
Heartbeat CPU 0 instructions: 52000000 cycles: 97681821 heartbeat IPC: 0.563568 cumulative IPC: 0.457977 (Simulation time: 0 hr 34 min 40 sec) 
Heartbeat CPU 0 instructions: 53000003 cycles: 99455185 heartbeat IPC: 0.563902 cumulative IPC: 0.459986 (Simulation time: 0 hr 35 min 19 sec) 
Heartbeat CPU 0 instructions: 54000002 cycles: 101173055 heartbeat IPC: 0.582116 cumulative IPC: 0.46219 (Simulation time: 0 hr 36 min 1 sec) 
Heartbeat CPU 0 instructions: 55000001 cycles: 102901853 heartbeat IPC: 0.578436 cumulative IPC: 0.464263 (Simulation time: 0 hr 36 min 44 sec) 
Heartbeat CPU 0 instructions: 56000000 cycles: 104674935 heartbeat IPC: 0.563989 cumulative IPC: 0.466055 (Simulation time: 0 hr 37 min 32 sec) 
Heartbeat CPU 0 instructions: 57000000 cycles: 106452311 heartbeat IPC: 0.562627 cumulative IPC: 0.467763 (Simulation time: 0 hr 38 min 14 sec) 
Heartbeat CPU 0 instructions: 58000000 cycles: 108220333 heartbeat IPC: 0.565604 cumulative IPC: 0.469455 (Simulation time: 0 hr 38 min 55 sec) 
Heartbeat CPU 0 instructions: 59000002 cycles: 109910301 heartbeat IPC: 0.591728 cumulative IPC: 0.471443 (Simulation time: 0 hr 39 min 34 sec) 
Heartbeat CPU 0 instructions: 60000000 cycles: 111672709 heartbeat IPC: 0.567404 cumulative IPC: 0.473043 (Simulation time: 0 hr 40 min 15 sec) 
Heartbeat CPU 0 instructions: 61000001 cycles: 113450397 heartbeat IPC: 0.562529 cumulative IPC: 0.474523 (Simulation time: 0 hr 40 min 54 sec) 
Heartbeat CPU 0 instructions: 62000000 cycles: 115226386 heartbeat IPC: 0.563066 cumulative IPC: 0.475963 (Simulation time: 0 hr 41 min 34 sec) 
Heartbeat CPU 0 instructions: 63000001 cycles: 121492880 heartbeat IPC: 0.159579 cumulative IPC: 0.4588 (Simulation time: 0 hr 42 min 21 sec) 
Heartbeat CPU 0 instructions: 64000000 cycles: 123772096 heartbeat IPC: 0.438747 cumulative IPC: 0.458412 (Simulation time: 0 hr 43 min 1 sec) 
Heartbeat CPU 0 instructions: 65000002 cycles: 125545357 heartbeat IPC: 0.563934 cumulative IPC: 0.459977 (Simulation time: 0 hr 43 min 41 sec) 
Heartbeat CPU 0 instructions: 66000001 cycles: 127319348 heartbeat IPC: 0.5637 cumulative IPC: 0.461493 (Simulation time: 0 hr 44 min 27 sec) 
Heartbeat CPU 0 instructions: 67000003 cycles: 129087787 heartbeat IPC: 0.565472 cumulative IPC: 0.462987 (Simulation time: 0 hr 45 min 11 sec) 
Heartbeat CPU 0 instructions: 68000000 cycles: 130817006 heartbeat IPC: 0.578294 cumulative IPC: 0.464584 (Simulation time: 0 hr 45 min 49 sec) 
Heartbeat CPU 0 instructions: 69000003 cycles: 132596855 heartbeat IPC: 0.561847 cumulative IPC: 0.465951 (Simulation time: 0 hr 46 min 31 sec) 
Heartbeat CPU 0 instructions: 70000002 cycles: 134371010 heartbeat IPC: 0.563648 cumulative IPC: 0.467301 (Simulation time: 0 hr 47 min 12 sec) 
Heartbeat CPU 0 instructions: 71000000 cycles: 136145869 heartbeat IPC: 0.563424 cumulative IPC: 0.468612 (Simulation time: 0 hr 47 min 55 sec) 
Heartbeat CPU 0 instructions: 72000000 cycles: 137895187 heartbeat IPC: 0.571651 cumulative IPC: 0.469978 (Simulation time: 0 hr 48 min 34 sec) 
Heartbeat CPU 0 instructions: 73000001 cycles: 139598051 heartbeat IPC: 0.587247 cumulative IPC: 0.471472 (Simulation time: 0 hr 49 min 18 sec) 
Heartbeat CPU 0 instructions: 74000003 cycles: 141368776 heartbeat IPC: 0.564742 cumulative IPC: 0.472692 (Simulation time: 0 hr 49 min 56 sec) 
Heartbeat CPU 0 instructions: 75000002 cycles: 143145299 heartbeat IPC: 0.562897 cumulative IPC: 0.47386 (Simulation time: 0 hr 50 min 36 sec) 
Heartbeat CPU 0 instructions: 76000000 cycles: 148458903 heartbeat IPC: 0.188196 cumulative IPC: 0.463207 (Simulation time: 0 hr 51 min 16 sec) 
Heartbeat CPU 0 instructions: 77000001 cycles: 151654855 heartbeat IPC: 0.312896 cumulative IPC: 0.45991 (Simulation time: 0 hr 51 min 54 sec) 
Heartbeat CPU 0 instructions: 78000000 cycles: 153406127 heartbeat IPC: 0.571013 cumulative IPC: 0.46123 (Simulation time: 0 hr 52 min 34 sec) 
Heartbeat CPU 0 instructions: 79000002 cycles: 155178095 heartbeat IPC: 0.564345 cumulative IPC: 0.462454 (Simulation time: 0 hr 53 min 13 sec) 
Heartbeat CPU 0 instructions: 80000000 cycles: 156950968 heartbeat IPC: 0.564055 cumulative IPC: 0.463647 (Simulation time: 0 hr 53 min 48 sec) 
Heartbeat CPU 0 instructions: 81000002 cycles: 158702027 heartbeat IPC: 0.571084 cumulative IPC: 0.464879 (Simulation time: 0 hr 54 min 24 sec) 
Heartbeat CPU 0 instructions: 82000002 cycles: 160399330 heartbeat IPC: 0.58917 cumulative IPC: 0.466245 (Simulation time: 0 hr 54 min 57 sec) 
Heartbeat CPU 0 instructions: 83000003 cycles: 162169096 heartbeat IPC: 0.565047 cumulative IPC: 0.467365 (Simulation time: 0 hr 55 min 29 sec) 
Heartbeat CPU 0 instructions: 84000000 cycles: 163943266 heartbeat IPC: 0.563642 cumulative IPC: 0.468446 (Simulation time: 0 hr 55 min 58 sec) 
Heartbeat CPU 0 instructions: 85000002 cycles: 165717350 heartbeat IPC: 0.563672 cumulative IPC: 0.469503 (Simulation time: 0 hr 56 min 27 sec) 
Heartbeat CPU 0 instructions: 86000003 cycles: 167435895 heartbeat IPC: 0.581888 cumulative IPC: 0.4707 (Simulation time: 0 hr 56 min 54 sec) 
Heartbeat CPU 0 instructions: 87000000 cycles: 169181266 heartbeat IPC: 0.572942 cumulative IPC: 0.471793 (Simulation time: 0 hr 57 min 20 sec) 
Heartbeat CPU 0 instructions: 88000000 cycles: 170953768 heartbeat IPC: 0.564174 cumulative IPC: 0.472786 (Simulation time: 0 hr 57 min 43 sec) 
Heartbeat CPU 0 instructions: 89000001 cycles: 175327994 heartbeat IPC: 0.228612 cumulative IPC: 0.466479 (Simulation time: 0 hr 58 min 9 sec) 
Heartbeat CPU 0 instructions: 90000002 cycles: 179499194 heartbeat IPC: 0.239739 cumulative IPC: 0.461028 (Simulation time: 0 hr 58 min 36 sec) 
Heartbeat CPU 0 instructions: 91000000 cycles: 181194898 heartbeat IPC: 0.589724 cumulative IPC: 0.462274 (Simulation time: 0 hr 58 min 59 sec) 
Heartbeat CPU 0 instructions: 92000000 cycles: 182961202 heartbeat IPC: 0.566154 cumulative IPC: 0.463311 (Simulation time: 0 hr 59 min 24 sec) 
Heartbeat CPU 0 instructions: 93000001 cycles: 184734378 heartbeat IPC: 0.56396 cumulative IPC: 0.464309 (Simulation time: 0 hr 59 min 46 sec) 
Heartbeat CPU 0 instructions: 94000003 cycles: 186510892 heartbeat IPC: 0.562901 cumulative IPC: 0.465279 (Simulation time: 1 hr 0 min 8 sec) 
Heartbeat CPU 0 instructions: 95000001 cycles: 188234715 heartbeat IPC: 0.580105 cumulative IPC: 0.466365 (Simulation time: 1 hr 0 min 28 sec) 
Heartbeat CPU 0 instructions: 96000000 cycles: 189957926 heartbeat IPC: 0.580311 cumulative IPC: 0.467432 (Simulation time: 1 hr 0 min 49 sec) 
Heartbeat CPU 0 instructions: 97000002 cycles: 191730128 heartbeat IPC: 0.564271 cumulative IPC: 0.468356 (Simulation time: 1 hr 1 min 10 sec) 
Heartbeat CPU 0 instructions: 98000000 cycles: 193506211 heartbeat IPC: 0.563036 cumulative IPC: 0.469253 (Simulation time: 1 hr 1 min 31 sec) 
Heartbeat CPU 0 instructions: 99000002 cycles: 195277249 heartbeat IPC: 0.564642 cumulative IPC: 0.470145 (Simulation time: 1 hr 1 min 49 sec) 
Heartbeat CPU 0 instructions: 100000000 cycles: 196971515 heartbeat IPC: 0.590225 cumulative IPC: 0.471211 (Simulation time: 1 hr 2 min 6 sec) 
Heartbeat CPU 0 instructions: 101000002 cycles: 198729236 heartbeat IPC: 0.56892 cumulative IPC: 0.472102 (Simulation time: 1 hr 2 min 23 sec) 
Heartbeat CPU 0 instructions: 102000000 cycles: 202097619 heartbeat IPC: 0.296878 cumulative IPC: 0.469092 (Simulation time: 1 hr 2 min 40 sec) 
Heartbeat CPU 0 instructions: 103000002 cycles: 207273490 heartbeat IPC: 0.193205 cumulative IPC: 0.461998 (Simulation time: 1 hr 2 min 58 sec) 
Heartbeat CPU 0 instructions: 104000000 cycles: 209001779 heartbeat IPC: 0.578606 cumulative IPC: 0.462991 (Simulation time: 1 hr 3 min 13 sec) 
Heartbeat CPU 0 instructions: 105000002 cycles: 210719251 heartbeat IPC: 0.582252 cumulative IPC: 0.463991 (Simulation time: 1 hr 3 min 27 sec) 
Heartbeat CPU 0 instructions: 106000001 cycles: 212494323 heartbeat IPC: 0.563357 cumulative IPC: 0.464846 (Simulation time: 1 hr 3 min 41 sec) 
Heartbeat CPU 0 instructions: 107000003 cycles: 214267140 heartbeat IPC: 0.564075 cumulative IPC: 0.46569 (Simulation time: 1 hr 3 min 55 sec) 
Heartbeat CPU 0 instructions: 108000000 cycles: 216038736 heartbeat IPC: 0.564461 cumulative IPC: 0.466523 (Simulation time: 1 hr 4 min 9 sec) 
Heartbeat CPU 0 instructions: 109000003 cycles: 217739355 heartbeat IPC: 0.588023 cumulative IPC: 0.467499 (Simulation time: 1 hr 4 min 22 sec) 
Heartbeat CPU 0 instructions: 110000002 cycles: 219492014 heartbeat IPC: 0.570561 cumulative IPC: 0.468345 (Simulation time: 1 hr 4 min 33 sec) 
Finished CPU 0 instructions: 100000003 cycles: 213517902 cummulative IPC: 0.468345 (Simulation time: 1 hr 4 min 33 sec) 

ChampSim completed all CPUs

Region of Interest Statistics

CPU 0 cummulative IPC: 0.468345 instructions: 100000003 cycles: 213517902
LLC TOTAL     ACCESS:    1173542  HIT:     197825  MISS:     975717
LLC LOAD      ACCESS:      30199  HIT:       2803  MISS:      27396
LLC RFO       ACCESS:     265309  HIT:      15903  MISS:     249406
LLC PREFETCH  ACCESS:     610691  HIT:      79202  MISS:     531489
LLC WRITEBACK ACCESS:     267343  HIT:      99917  MISS:     167426
Insertion Distribution: 
	LOAD 0 0 11119 17438 
	RFO 48013 0 30597 182068 
	PREF 0 12188 50325 517963 
	WRITEBACK 0 0 0 172392 
Total Prefetch Downgrades: 13106
