
*** ChampSim Multicore Out-of-Order Simulator ***

Warmup Instructions: 10000000
Simulation Instructions: 100000000
Configuration: 2
Number of CPUs: 1
LLC sets: 2048
LLC ways: 16
Off-chip DRAM Channels: 1 Width: 64-bit Data Rate: 1600 MT/s

CPU 0 runs /datasets/cs240c-wi22-a00-public/data/Assignment2-gz/zeusmp_600B.trace.gz
CPU 0 L1D next line prefetcher
CPU 0 L2C IP-based stride prefetcher
Initialize SRRIP state
Heartbeat CPU 0 instructions: 1000000 cycles: 407346 heartbeat IPC: 2.45492 cumulative IPC: 2.45492 (Simulation time: 0 hr 0 min 28 sec) 
Heartbeat CPU 0 instructions: 2000001 cycles: 814284 heartbeat IPC: 2.45738 cumulative IPC: 2.45615 (Simulation time: 0 hr 0 min 54 sec) 
Heartbeat CPU 0 instructions: 3000000 cycles: 1221753 heartbeat IPC: 2.45417 cumulative IPC: 2.45549 (Simulation time: 0 hr 1 min 20 sec) 
Heartbeat CPU 0 instructions: 4000000 cycles: 1629404 heartbeat IPC: 2.45308 cumulative IPC: 2.45489 (Simulation time: 0 hr 1 min 44 sec) 
Heartbeat CPU 0 instructions: 5000001 cycles: 2036968 heartbeat IPC: 2.4536 cumulative IPC: 2.45463 (Simulation time: 0 hr 2 min 10 sec) 
Heartbeat CPU 0 instructions: 6000000 cycles: 2444292 heartbeat IPC: 2.45505 cumulative IPC: 2.4547 (Simulation time: 0 hr 2 min 37 sec) 
Heartbeat CPU 0 instructions: 7000000 cycles: 2851770 heartbeat IPC: 2.45412 cumulative IPC: 2.45462 (Simulation time: 0 hr 3 min 9 sec) 
Heartbeat CPU 0 instructions: 8000000 cycles: 3259373 heartbeat IPC: 2.45337 cumulative IPC: 2.45446 (Simulation time: 0 hr 3 min 36 sec) 
Heartbeat CPU 0 instructions: 9000003 cycles: 3666450 heartbeat IPC: 2.45655 cumulative IPC: 2.45469 (Simulation time: 0 hr 4 min 2 sec) 
Heartbeat CPU 0 instructions: 10000001 cycles: 4073950 heartbeat IPC: 2.45398 cumulative IPC: 2.45462 (Simulation time: 0 hr 4 min 27 sec) 

Warmup complete CPU 0 instructions: 10000001 cycles: 4073950 (Simulation time: 0 hr 4 min 27 sec) 

Heartbeat CPU 0 instructions: 11000000 cycles: 4749481 heartbeat IPC: 1.48032 cumulative IPC: 1.48032 (Simulation time: 0 hr 4 min 56 sec) 
Heartbeat CPU 0 instructions: 12000000 cycles: 5423473 heartbeat IPC: 1.4837 cumulative IPC: 1.482 (Simulation time: 0 hr 5 min 26 sec) 
Heartbeat CPU 0 instructions: 13000001 cycles: 6097556 heartbeat IPC: 1.4835 cumulative IPC: 1.4825 (Simulation time: 0 hr 5 min 55 sec) 
Heartbeat CPU 0 instructions: 14000001 cycles: 6771012 heartbeat IPC: 1.48488 cumulative IPC: 1.4831 (Simulation time: 0 hr 6 min 26 sec) 
Heartbeat CPU 0 instructions: 15000003 cycles: 7446853 heartbeat IPC: 1.47964 cumulative IPC: 1.4824 (Simulation time: 0 hr 6 min 56 sec) 
Heartbeat CPU 0 instructions: 16000000 cycles: 8171094 heartbeat IPC: 1.38075 cumulative IPC: 1.46443 (Simulation time: 0 hr 7 min 26 sec) 
Heartbeat CPU 0 instructions: 17000001 cycles: 8958700 heartbeat IPC: 1.26967 cumulative IPC: 1.43303 (Simulation time: 0 hr 7 min 56 sec) 
Heartbeat CPU 0 instructions: 18000003 cycles: 9740359 heartbeat IPC: 1.27933 cumulative IPC: 1.41183 (Simulation time: 0 hr 8 min 26 sec) 
Heartbeat CPU 0 instructions: 19000000 cycles: 10523542 heartbeat IPC: 1.27684 cumulative IPC: 1.39544 (Simulation time: 0 hr 8 min 57 sec) 
Heartbeat CPU 0 instructions: 20000000 cycles: 11291858 heartbeat IPC: 1.30155 cumulative IPC: 1.38544 (Simulation time: 0 hr 9 min 26 sec) 
Heartbeat CPU 0 instructions: 21000002 cycles: 12066405 heartbeat IPC: 1.29108 cumulative IPC: 1.3763 (Simulation time: 0 hr 9 min 54 sec) 
Heartbeat CPU 0 instructions: 22000000 cycles: 12845286 heartbeat IPC: 1.28389 cumulative IPC: 1.36809 (Simulation time: 0 hr 10 min 24 sec) 
Heartbeat CPU 0 instructions: 23000000 cycles: 13622874 heartbeat IPC: 1.28603 cumulative IPC: 1.36141 (Simulation time: 0 hr 10 min 53 sec) 
Heartbeat CPU 0 instructions: 24000000 cycles: 14398678 heartbeat IPC: 1.28899 cumulative IPC: 1.35597 (Simulation time: 0 hr 11 min 23 sec) 
Heartbeat CPU 0 instructions: 25000000 cycles: 15168908 heartbeat IPC: 1.29831 cumulative IPC: 1.35197 (Simulation time: 0 hr 11 min 53 sec) 
Heartbeat CPU 0 instructions: 26000000 cycles: 15943064 heartbeat IPC: 1.29173 cumulative IPC: 1.34804 (Simulation time: 0 hr 12 min 22 sec) 
Heartbeat CPU 0 instructions: 27000003 cycles: 16719087 heartbeat IPC: 1.28863 cumulative IPC: 1.34439 (Simulation time: 0 hr 12 min 52 sec) 
Heartbeat CPU 0 instructions: 28000000 cycles: 17501873 heartbeat IPC: 1.27748 cumulative IPC: 1.34049 (Simulation time: 0 hr 13 min 22 sec) 
Heartbeat CPU 0 instructions: 29000000 cycles: 18279075 heartbeat IPC: 1.28667 cumulative IPC: 1.33755 (Simulation time: 0 hr 13 min 53 sec) 
Heartbeat CPU 0 instructions: 30000003 cycles: 19060478 heartbeat IPC: 1.27975 cumulative IPC: 1.33453 (Simulation time: 0 hr 14 min 23 sec) 
Heartbeat CPU 0 instructions: 31000002 cycles: 19848499 heartbeat IPC: 1.269 cumulative IPC: 1.33126 (Simulation time: 0 hr 14 min 50 sec) 
Heartbeat CPU 0 instructions: 32000000 cycles: 20624795 heartbeat IPC: 1.28817 cumulative IPC: 1.32924 (Simulation time: 0 hr 15 min 20 sec) 
Heartbeat CPU 0 instructions: 33000001 cycles: 21410048 heartbeat IPC: 1.27348 cumulative IPC: 1.32671 (Simulation time: 0 hr 15 min 51 sec) 
Heartbeat CPU 0 instructions: 34000000 cycles: 22190365 heartbeat IPC: 1.28153 cumulative IPC: 1.32477 (Simulation time: 0 hr 16 min 19 sec) 
Heartbeat CPU 0 instructions: 35000000 cycles: 22969085 heartbeat IPC: 1.28416 cumulative IPC: 1.32309 (Simulation time: 0 hr 16 min 47 sec) 
Heartbeat CPU 0 instructions: 36000000 cycles: 23746660 heartbeat IPC: 1.28605 cumulative IPC: 1.32163 (Simulation time: 0 hr 17 min 15 sec) 
Heartbeat CPU 0 instructions: 37000001 cycles: 24528279 heartbeat IPC: 1.2794 cumulative IPC: 1.32001 (Simulation time: 0 hr 17 min 47 sec) 
Heartbeat CPU 0 instructions: 38000001 cycles: 25316028 heartbeat IPC: 1.26944 cumulative IPC: 1.31814 (Simulation time: 0 hr 18 min 18 sec) 
Heartbeat CPU 0 instructions: 39000002 cycles: 26094558 heartbeat IPC: 1.28447 cumulative IPC: 1.31695 (Simulation time: 0 hr 18 min 48 sec) 
Heartbeat CPU 0 instructions: 40000000 cycles: 26876832 heartbeat IPC: 1.27832 cumulative IPC: 1.31562 (Simulation time: 0 hr 19 min 19 sec) 
Heartbeat CPU 0 instructions: 41000002 cycles: 27654084 heartbeat IPC: 1.28659 cumulative IPC: 1.31467 (Simulation time: 0 hr 19 min 50 sec) 
Heartbeat CPU 0 instructions: 42000000 cycles: 28431033 heartbeat IPC: 1.28708 cumulative IPC: 1.31379 (Simulation time: 0 hr 20 min 19 sec) 
Heartbeat CPU 0 instructions: 43000002 cycles: 29216253 heartbeat IPC: 1.27353 cumulative IPC: 1.31253 (Simulation time: 0 hr 20 min 50 sec) 
Heartbeat CPU 0 instructions: 44000000 cycles: 29995287 heartbeat IPC: 1.28364 cumulative IPC: 1.31166 (Simulation time: 0 hr 21 min 19 sec) 
Heartbeat CPU 0 instructions: 45000003 cycles: 30769156 heartbeat IPC: 1.29221 cumulative IPC: 1.3111 (Simulation time: 0 hr 21 min 50 sec) 
Heartbeat CPU 0 instructions: 46000000 cycles: 31545964 heartbeat IPC: 1.28732 cumulative IPC: 1.31042 (Simulation time: 0 hr 22 min 21 sec) 
Heartbeat CPU 0 instructions: 47000001 cycles: 32332025 heartbeat IPC: 1.27217 cumulative IPC: 1.30936 (Simulation time: 0 hr 22 min 49 sec) 
Heartbeat CPU 0 instructions: 48000000 cycles: 33111089 heartbeat IPC: 1.28359 cumulative IPC: 1.30867 (Simulation time: 0 hr 23 min 17 sec) 
Heartbeat CPU 0 instructions: 49000000 cycles: 33889351 heartbeat IPC: 1.28491 cumulative IPC: 1.30805 (Simulation time: 0 hr 23 min 50 sec) 
Heartbeat CPU 0 instructions: 50000000 cycles: 34666814 heartbeat IPC: 1.28623 cumulative IPC: 1.30749 (Simulation time: 0 hr 24 min 17 sec) 
Heartbeat CPU 0 instructions: 51000001 cycles: 35446841 heartbeat IPC: 1.28201 cumulative IPC: 1.30686 (Simulation time: 0 hr 24 min 44 sec) 
Heartbeat CPU 0 instructions: 52000000 cycles: 36218401 heartbeat IPC: 1.29607 cumulative IPC: 1.3066 (Simulation time: 0 hr 25 min 14 sec) 
Heartbeat CPU 0 instructions: 53000001 cycles: 37002477 heartbeat IPC: 1.27539 cumulative IPC: 1.30586 (Simulation time: 0 hr 25 min 51 sec) 
Heartbeat CPU 0 instructions: 54000000 cycles: 37786732 heartbeat IPC: 1.27509 cumulative IPC: 1.30514 (Simulation time: 0 hr 26 min 24 sec) 
Heartbeat CPU 0 instructions: 55000001 cycles: 38560948 heartbeat IPC: 1.29163 cumulative IPC: 1.30484 (Simulation time: 0 hr 26 min 53 sec) 
Heartbeat CPU 0 instructions: 56000000 cycles: 39335764 heartbeat IPC: 1.29063 cumulative IPC: 1.30453 (Simulation time: 0 hr 27 min 22 sec) 
Heartbeat CPU 0 instructions: 57000003 cycles: 40122673 heartbeat IPC: 1.2708 cumulative IPC: 1.30379 (Simulation time: 0 hr 27 min 51 sec) 
Heartbeat CPU 0 instructions: 58000001 cycles: 40894734 heartbeat IPC: 1.29523 cumulative IPC: 1.30361 (Simulation time: 0 hr 28 min 24 sec) 
Heartbeat CPU 0 instructions: 59000000 cycles: 41673952 heartbeat IPC: 1.28334 cumulative IPC: 1.30319 (Simulation time: 0 hr 28 min 56 sec) 
Heartbeat CPU 0 instructions: 60000000 cycles: 42448489 heartbeat IPC: 1.29109 cumulative IPC: 1.30295 (Simulation time: 0 hr 29 min 25 sec) 
Heartbeat CPU 0 instructions: 61000003 cycles: 43227118 heartbeat IPC: 1.28431 cumulative IPC: 1.30258 (Simulation time: 0 hr 29 min 55 sec) 
Heartbeat CPU 0 instructions: 62000001 cycles: 44009281 heartbeat IPC: 1.2785 cumulative IPC: 1.30211 (Simulation time: 0 hr 30 min 24 sec) 
Heartbeat CPU 0 instructions: 63000000 cycles: 44782370 heartbeat IPC: 1.29351 cumulative IPC: 1.30194 (Simulation time: 0 hr 30 min 53 sec) 
Heartbeat CPU 0 instructions: 64000000 cycles: 45558276 heartbeat IPC: 1.28882 cumulative IPC: 1.3017 (Simulation time: 0 hr 31 min 22 sec) 
Heartbeat CPU 0 instructions: 65000001 cycles: 46346584 heartbeat IPC: 1.26854 cumulative IPC: 1.30108 (Simulation time: 0 hr 31 min 52 sec) 
Heartbeat CPU 0 instructions: 66000000 cycles: 47132620 heartbeat IPC: 1.27221 cumulative IPC: 1.30055 (Simulation time: 0 hr 32 min 22 sec) 
Heartbeat CPU 0 instructions: 67000001 cycles: 47918866 heartbeat IPC: 1.27187 cumulative IPC: 1.30004 (Simulation time: 0 hr 32 min 51 sec) 
Heartbeat CPU 0 instructions: 68000000 cycles: 48696367 heartbeat IPC: 1.28617 cumulative IPC: 1.2998 (Simulation time: 0 hr 33 min 22 sec) 
Heartbeat CPU 0 instructions: 69000002 cycles: 49484193 heartbeat IPC: 1.26932 cumulative IPC: 1.29927 (Simulation time: 0 hr 33 min 53 sec) 
Heartbeat CPU 0 instructions: 70000000 cycles: 50259538 heartbeat IPC: 1.28975 cumulative IPC: 1.29911 (Simulation time: 0 hr 34 min 24 sec) 
Heartbeat CPU 0 instructions: 71000001 cycles: 51044646 heartbeat IPC: 1.27371 cumulative IPC: 1.29868 (Simulation time: 0 hr 34 min 57 sec) 
Heartbeat CPU 0 instructions: 72000000 cycles: 51827875 heartbeat IPC: 1.27676 cumulative IPC: 1.29832 (Simulation time: 0 hr 35 min 29 sec) 
Heartbeat CPU 0 instructions: 73000003 cycles: 52601456 heartbeat IPC: 1.29269 cumulative IPC: 1.29823 (Simulation time: 0 hr 36 min 2 sec) 
Heartbeat CPU 0 instructions: 74000002 cycles: 53379159 heartbeat IPC: 1.28584 cumulative IPC: 1.29804 (Simulation time: 0 hr 36 min 34 sec) 
Heartbeat CPU 0 instructions: 75000003 cycles: 54160561 heartbeat IPC: 1.27975 cumulative IPC: 1.29775 (Simulation time: 0 hr 37 min 9 sec) 
Heartbeat CPU 0 instructions: 76000000 cycles: 54947508 heartbeat IPC: 1.27073 cumulative IPC: 1.29733 (Simulation time: 0 hr 37 min 39 sec) 
Heartbeat CPU 0 instructions: 77000000 cycles: 55722592 heartbeat IPC: 1.29018 cumulative IPC: 1.29723 (Simulation time: 0 hr 38 min 12 sec) 
Heartbeat CPU 0 instructions: 78000003 cycles: 56501685 heartbeat IPC: 1.28355 cumulative IPC: 1.29702 (Simulation time: 0 hr 38 min 48 sec) 
Heartbeat CPU 0 instructions: 79000000 cycles: 57283602 heartbeat IPC: 1.2789 cumulative IPC: 1.29676 (Simulation time: 0 hr 39 min 17 sec) 
Heartbeat CPU 0 instructions: 80000000 cycles: 58064966 heartbeat IPC: 1.27981 cumulative IPC: 1.29651 (Simulation time: 0 hr 39 min 49 sec) 
Heartbeat CPU 0 instructions: 81000002 cycles: 58838774 heartbeat IPC: 1.29231 cumulative IPC: 1.29645 (Simulation time: 0 hr 40 min 18 sec) 
Heartbeat CPU 0 instructions: 82000002 cycles: 59622532 heartbeat IPC: 1.2759 cumulative IPC: 1.29616 (Simulation time: 0 hr 40 min 49 sec) 
Heartbeat CPU 0 instructions: 83000001 cycles: 60396470 heartbeat IPC: 1.29209 cumulative IPC: 1.29611 (Simulation time: 0 hr 41 min 21 sec) 
Heartbeat CPU 0 instructions: 84000000 cycles: 61177738 heartbeat IPC: 1.27997 cumulative IPC: 1.29589 (Simulation time: 0 hr 41 min 52 sec) 
Heartbeat CPU 0 instructions: 85000002 cycles: 61959644 heartbeat IPC: 1.27893 cumulative IPC: 1.29566 (Simulation time: 0 hr 42 min 25 sec) 
Heartbeat CPU 0 instructions: 86000002 cycles: 62736159 heartbeat IPC: 1.28781 cumulative IPC: 1.29555 (Simulation time: 0 hr 42 min 58 sec) 
Heartbeat CPU 0 instructions: 87000000 cycles: 63517109 heartbeat IPC: 1.28049 cumulative IPC: 1.29536 (Simulation time: 0 hr 43 min 28 sec) 
Heartbeat CPU 0 instructions: 88000000 cycles: 64303598 heartbeat IPC: 1.27147 cumulative IPC: 1.29504 (Simulation time: 0 hr 43 min 59 sec) 
Heartbeat CPU 0 instructions: 89000002 cycles: 65081213 heartbeat IPC: 1.28599 cumulative IPC: 1.29493 (Simulation time: 0 hr 44 min 27 sec) 
Heartbeat CPU 0 instructions: 90000002 cycles: 65853803 heartbeat IPC: 1.29435 cumulative IPC: 1.29492 (Simulation time: 0 hr 45 min 0 sec) 
Heartbeat CPU 0 instructions: 91000001 cycles: 66632001 heartbeat IPC: 1.28502 cumulative IPC: 1.2948 (Simulation time: 0 hr 45 min 31 sec) 
Heartbeat CPU 0 instructions: 92000000 cycles: 67419690 heartbeat IPC: 1.26954 cumulative IPC: 1.29448 (Simulation time: 0 hr 46 min 3 sec) 
Heartbeat CPU 0 instructions: 93000000 cycles: 68191976 heartbeat IPC: 1.29486 cumulative IPC: 1.29449 (Simulation time: 0 hr 46 min 38 sec) 
Heartbeat CPU 0 instructions: 94000002 cycles: 68969129 heartbeat IPC: 1.28675 cumulative IPC: 1.2944 (Simulation time: 0 hr 47 min 9 sec) 
Heartbeat CPU 0 instructions: 95000001 cycles: 69748737 heartbeat IPC: 1.28269 cumulative IPC: 1.29426 (Simulation time: 0 hr 47 min 39 sec) 
Heartbeat CPU 0 instructions: 96000000 cycles: 70528569 heartbeat IPC: 1.28233 cumulative IPC: 1.29412 (Simulation time: 0 hr 48 min 9 sec) 
Heartbeat CPU 0 instructions: 97000003 cycles: 71298775 heartbeat IPC: 1.29836 cumulative IPC: 1.29416 (Simulation time: 0 hr 48 min 38 sec) 
Heartbeat CPU 0 instructions: 98000002 cycles: 72075373 heartbeat IPC: 1.28767 cumulative IPC: 1.29409 (Simulation time: 0 hr 49 min 9 sec) 
Heartbeat CPU 0 instructions: 99000000 cycles: 72862236 heartbeat IPC: 1.27087 cumulative IPC: 1.29382 (Simulation time: 0 hr 49 min 39 sec) 
Heartbeat CPU 0 instructions: 100000000 cycles: 73639883 heartbeat IPC: 1.28593 cumulative IPC: 1.29374 (Simulation time: 0 hr 50 min 12 sec) 
Heartbeat CPU 0 instructions: 101000002 cycles: 74411484 heartbeat IPC: 1.29601 cumulative IPC: 1.29376 (Simulation time: 0 hr 50 min 40 sec) 
Heartbeat CPU 0 instructions: 102000002 cycles: 75198273 heartbeat IPC: 1.27099 cumulative IPC: 1.29351 (Simulation time: 0 hr 51 min 7 sec) 
Heartbeat CPU 0 instructions: 103000001 cycles: 75977733 heartbeat IPC: 1.28294 cumulative IPC: 1.2934 (Simulation time: 0 hr 51 min 34 sec) 
Heartbeat CPU 0 instructions: 104000000 cycles: 76760388 heartbeat IPC: 1.2777 cumulative IPC: 1.29323 (Simulation time: 0 hr 52 min 3 sec) 
Heartbeat CPU 0 instructions: 105000001 cycles: 77541689 heartbeat IPC: 1.27992 cumulative IPC: 1.29308 (Simulation time: 0 hr 52 min 34 sec) 
Heartbeat CPU 0 instructions: 106000000 cycles: 78321374 heartbeat IPC: 1.28257 cumulative IPC: 1.29297 (Simulation time: 0 hr 53 min 3 sec) 
Heartbeat CPU 0 instructions: 107000000 cycles: 79100733 heartbeat IPC: 1.28311 cumulative IPC: 1.29287 (Simulation time: 0 hr 53 min 30 sec) 
Heartbeat CPU 0 instructions: 108000000 cycles: 79878475 heartbeat IPC: 1.28577 cumulative IPC: 1.2928 (Simulation time: 0 hr 53 min 58 sec) 
Heartbeat CPU 0 instructions: 109000000 cycles: 80663351 heartbeat IPC: 1.27409 cumulative IPC: 1.29261 (Simulation time: 0 hr 54 min 24 sec) 
Heartbeat CPU 0 instructions: 110000002 cycles: 81448036 heartbeat IPC: 1.2744 cumulative IPC: 1.29242 (Simulation time: 0 hr 54 min 46 sec) 
Finished CPU 0 instructions: 100000001 cycles: 77374086 cummulative IPC: 1.29242 (Simulation time: 0 hr 54 min 46 sec) 

ChampSim completed all CPUs

Region of Interest Statistics

CPU 0 cummulative IPC: 1.29242 instructions: 100000001 cycles: 77374086
LLC TOTAL     ACCESS:     382561  HIT:      12802  MISS:     369759
LLC LOAD      ACCESS:      27924  HIT:        378  MISS:      27546
LLC RFO       ACCESS:       3434  HIT:          3  MISS:       3431
LLC PREFETCH  ACCESS:     287970  HIT:       2344  MISS:     285626
LLC WRITEBACK ACCESS:      63233  HIT:      10077  MISS:      53156
Insertion Distribution: 
	LOAD 0 0 7309 20969 
	RFO 0 0 2911 6515 
	PREF 0 0 21974 291142 
	WRITEBACK 0 0 0 55688 
Total Prefetch Downgrades: 262
