
*** ChampSim Multicore Out-of-Order Simulator ***

Warmup Instructions: 10000000
Simulation Instructions: 100000000
Configuration: 2
Number of CPUs: 1
LLC sets: 2048
LLC ways: 16
Off-chip DRAM Channels: 1 Width: 64-bit Data Rate: 1600 MT/s

CPU 0 runs /datasets/cs240c-wi22-a00-public/data/Assignment2-gz/cactusADM_1495B.trace.gz
CPU 0 L1D next line prefetcher
CPU 0 L2C IP-based stride prefetcher
Initialize SRRIP state
Heartbeat CPU 0 instructions: 1000003 cycles: 593383 heartbeat IPC: 1.68526 cumulative IPC: 1.68526 (Simulation time: 0 hr 0 min 39 sec) 
Heartbeat CPU 0 instructions: 2000000 cycles: 1186345 heartbeat IPC: 1.68644 cumulative IPC: 1.68585 (Simulation time: 0 hr 1 min 16 sec) 
Heartbeat CPU 0 instructions: 3000003 cycles: 1779703 heartbeat IPC: 1.68533 cumulative IPC: 1.68568 (Simulation time: 0 hr 1 min 52 sec) 
Heartbeat CPU 0 instructions: 4000000 cycles: 2372522 heartbeat IPC: 1.68685 cumulative IPC: 1.68597 (Simulation time: 0 hr 2 min 29 sec) 
Heartbeat CPU 0 instructions: 5000000 cycles: 2965579 heartbeat IPC: 1.68618 cumulative IPC: 1.68601 (Simulation time: 0 hr 3 min 7 sec) 
Heartbeat CPU 0 instructions: 6000001 cycles: 3558796 heartbeat IPC: 1.68573 cumulative IPC: 1.68596 (Simulation time: 0 hr 3 min 42 sec) 
Heartbeat CPU 0 instructions: 7000000 cycles: 4151738 heartbeat IPC: 1.6865 cumulative IPC: 1.68604 (Simulation time: 0 hr 4 min 21 sec) 
Heartbeat CPU 0 instructions: 8000000 cycles: 4906786 heartbeat IPC: 1.32442 cumulative IPC: 1.6304 (Simulation time: 0 hr 5 min 0 sec) 
Heartbeat CPU 0 instructions: 9000002 cycles: 5499989 heartbeat IPC: 1.68577 cumulative IPC: 1.63637 (Simulation time: 0 hr 5 min 38 sec) 
Heartbeat CPU 0 instructions: 10000002 cycles: 6092911 heartbeat IPC: 1.68656 cumulative IPC: 1.64125 (Simulation time: 0 hr 6 min 14 sec) 

Warmup complete CPU 0 instructions: 10000002 cycles: 6092911 (Simulation time: 0 hr 6 min 14 sec) 

Heartbeat CPU 0 instructions: 11000000 cycles: 7786364 heartbeat IPC: 0.590508 cumulative IPC: 0.590508 (Simulation time: 0 hr 6 min 52 sec) 
Heartbeat CPU 0 instructions: 12000000 cycles: 9530337 heartbeat IPC: 0.573403 cumulative IPC: 0.58183 (Simulation time: 0 hr 7 min 31 sec) 
Heartbeat CPU 0 instructions: 13000002 cycles: 11275498 heartbeat IPC: 0.573014 cumulative IPC: 0.578861 (Simulation time: 0 hr 8 min 7 sec) 
Heartbeat CPU 0 instructions: 14000001 cycles: 13011275 heartbeat IPC: 0.57611 cumulative IPC: 0.578171 (Simulation time: 0 hr 8 min 44 sec) 
Heartbeat CPU 0 instructions: 15000001 cycles: 14668979 heartbeat IPC: 0.603244 cumulative IPC: 0.583018 (Simulation time: 0 hr 9 min 22 sec) 
Heartbeat CPU 0 instructions: 16000000 cycles: 16390591 heartbeat IPC: 0.58085 cumulative IPC: 0.582655 (Simulation time: 0 hr 10 min 2 sec) 
Heartbeat CPU 0 instructions: 17000003 cycles: 18135996 heartbeat IPC: 0.572935 cumulative IPC: 0.581246 (Simulation time: 0 hr 10 min 39 sec) 
Heartbeat CPU 0 instructions: 18000000 cycles: 19882165 heartbeat IPC: 0.572681 cumulative IPC: 0.580162 (Simulation time: 0 hr 11 min 18 sec) 
Heartbeat CPU 0 instructions: 19000002 cycles: 21593324 heartbeat IPC: 0.5844 cumulative IPC: 0.58063 (Simulation time: 0 hr 11 min 55 sec) 
Heartbeat CPU 0 instructions: 20000000 cycles: 23259691 heartbeat IPC: 0.600107 cumulative IPC: 0.58252 (Simulation time: 0 hr 12 min 31 sec) 
Heartbeat CPU 0 instructions: 21000001 cycles: 29599960 heartbeat IPC: 0.157722 cumulative IPC: 0.467945 (Simulation time: 0 hr 13 min 15 sec) 
Heartbeat CPU 0 instructions: 22000000 cycles: 31699919 heartbeat IPC: 0.476199 cumulative IPC: 0.468622 (Simulation time: 0 hr 13 min 56 sec) 
Heartbeat CPU 0 instructions: 23000001 cycles: 33433509 heartbeat IPC: 0.576838 cumulative IPC: 0.475483 (Simulation time: 0 hr 14 min 36 sec) 
Heartbeat CPU 0 instructions: 24000000 cycles: 35091835 heartbeat IPC: 0.603017 cumulative IPC: 0.482776 (Simulation time: 0 hr 15 min 13 sec) 
Heartbeat CPU 0 instructions: 25000002 cycles: 36820021 heartbeat IPC: 0.578643 cumulative IPC: 0.488168 (Simulation time: 0 hr 15 min 52 sec) 
Heartbeat CPU 0 instructions: 26000000 cycles: 38575650 heartbeat IPC: 0.569595 cumulative IPC: 0.492569 (Simulation time: 0 hr 16 min 28 sec) 
Heartbeat CPU 0 instructions: 27000002 cycles: 40317309 heartbeat IPC: 0.574166 cumulative IPC: 0.496722 (Simulation time: 0 hr 17 min 6 sec) 
Heartbeat CPU 0 instructions: 28000000 cycles: 42027245 heartbeat IPC: 0.584816 cumulative IPC: 0.500914 (Simulation time: 0 hr 17 min 43 sec) 
Heartbeat CPU 0 instructions: 29000003 cycles: 43686654 heartbeat IPC: 0.602626 cumulative IPC: 0.505403 (Simulation time: 0 hr 18 min 20 sec) 
Heartbeat CPU 0 instructions: 30000000 cycles: 45454970 heartbeat IPC: 0.565508 cumulative IPC: 0.508103 (Simulation time: 0 hr 18 min 58 sec) 
Heartbeat CPU 0 instructions: 31000003 cycles: 47197679 heartbeat IPC: 0.573821 cumulative IPC: 0.51089 (Simulation time: 0 hr 19 min 37 sec) 
Heartbeat CPU 0 instructions: 32000000 cycles: 48937753 heartbeat IPC: 0.574686 cumulative IPC: 0.513481 (Simulation time: 0 hr 20 min 15 sec) 
Heartbeat CPU 0 instructions: 33000001 cycles: 50618956 heartbeat IPC: 0.594813 cumulative IPC: 0.516552 (Simulation time: 0 hr 20 min 52 sec) 
Heartbeat CPU 0 instructions: 34000002 cycles: 56078298 heartbeat IPC: 0.183172 cumulative IPC: 0.48014 (Simulation time: 0 hr 21 min 36 sec) 
Heartbeat CPU 0 instructions: 35000002 cycles: 59088134 heartbeat IPC: 0.332244 cumulative IPC: 0.471741 (Simulation time: 0 hr 22 min 16 sec) 
Heartbeat CPU 0 instructions: 36000000 cycles: 60828499 heartbeat IPC: 0.574591 cumulative IPC: 0.475011 (Simulation time: 0 hr 22 min 52 sec) 
Heartbeat CPU 0 instructions: 37000001 cycles: 62545304 heartbeat IPC: 0.582478 cumulative IPC: 0.478279 (Simulation time: 0 hr 23 min 32 sec) 
Heartbeat CPU 0 instructions: 38000003 cycles: 64203033 heartbeat IPC: 0.603236 cumulative IPC: 0.481844 (Simulation time: 0 hr 24 min 9 sec) 
Heartbeat CPU 0 instructions: 39000003 cycles: 65936319 heartbeat IPC: 0.576939 cumulative IPC: 0.484598 (Simulation time: 0 hr 24 min 47 sec) 
Heartbeat CPU 0 instructions: 40000000 cycles: 67678187 heartbeat IPC: 0.574095 cumulative IPC: 0.487129 (Simulation time: 0 hr 25 min 25 sec) 
Heartbeat CPU 0 instructions: 41000002 cycles: 69417896 heartbeat IPC: 0.57481 cumulative IPC: 0.489538 (Simulation time: 0 hr 26 min 3 sec) 
Heartbeat CPU 0 instructions: 42000000 cycles: 71100680 heartbeat IPC: 0.594252 cumulative IPC: 0.492249 (Simulation time: 0 hr 26 min 39 sec) 
Heartbeat CPU 0 instructions: 43000000 cycles: 72784892 heartbeat IPC: 0.593749 cumulative IPC: 0.494812 (Simulation time: 0 hr 27 min 15 sec) 
Heartbeat CPU 0 instructions: 44000000 cycles: 74525712 heartbeat IPC: 0.574442 cumulative IPC: 0.496838 (Simulation time: 0 hr 27 min 53 sec) 
Heartbeat CPU 0 instructions: 45000003 cycles: 76267026 heartbeat IPC: 0.574281 cumulative IPC: 0.498759 (Simulation time: 0 hr 28 min 30 sec) 
Heartbeat CPU 0 instructions: 46000002 cycles: 78000946 heartbeat IPC: 0.576727 cumulative IPC: 0.500639 (Simulation time: 0 hr 29 min 8 sec) 
Heartbeat CPU 0 instructions: 47000002 cycles: 82418651 heartbeat IPC: 0.226362 cumulative IPC: 0.484764 (Simulation time: 0 hr 29 min 50 sec) 
Heartbeat CPU 0 instructions: 48000000 cycles: 86426339 heartbeat IPC: 0.24952 cumulative IPC: 0.473028 (Simulation time: 0 hr 30 min 29 sec) 
Heartbeat CPU 0 instructions: 49000000 cycles: 88165230 heartbeat IPC: 0.575079 cumulative IPC: 0.475191 (Simulation time: 0 hr 31 min 5 sec) 
Heartbeat CPU 0 instructions: 50000000 cycles: 89906279 heartbeat IPC: 0.574366 cumulative IPC: 0.477251 (Simulation time: 0 hr 31 min 42 sec) 
Heartbeat CPU 0 instructions: 51000000 cycles: 91595646 heartbeat IPC: 0.591938 cumulative IPC: 0.479517 (Simulation time: 0 hr 32 min 18 sec) 
Heartbeat CPU 0 instructions: 52000000 cycles: 93277683 heartbeat IPC: 0.594517 cumulative IPC: 0.481735 (Simulation time: 0 hr 32 min 56 sec) 
Heartbeat CPU 0 instructions: 53000003 cycles: 95017038 heartbeat IPC: 0.574928 cumulative IPC: 0.483558 (Simulation time: 0 hr 33 min 35 sec) 
Heartbeat CPU 0 instructions: 54000001 cycles: 96756866 heartbeat IPC: 0.574768 cumulative IPC: 0.485309 (Simulation time: 0 hr 34 min 14 sec) 
Heartbeat CPU 0 instructions: 55000000 cycles: 98493210 heartbeat IPC: 0.575922 cumulative IPC: 0.487011 (Simulation time: 0 hr 34 min 51 sec) 
Heartbeat CPU 0 instructions: 56000000 cycles: 100152222 heartbeat IPC: 0.602768 cumulative IPC: 0.489053 (Simulation time: 0 hr 35 min 30 sec) 
Heartbeat CPU 0 instructions: 57000000 cycles: 101865252 heartbeat IPC: 0.583761 cumulative IPC: 0.490747 (Simulation time: 0 hr 36 min 9 sec) 
Heartbeat CPU 0 instructions: 58000002 cycles: 103605798 heartbeat IPC: 0.574534 cumulative IPC: 0.492243 (Simulation time: 0 hr 36 min 47 sec) 
Heartbeat CPU 0 instructions: 59000001 cycles: 105346731 heartbeat IPC: 0.574404 cumulative IPC: 0.493684 (Simulation time: 0 hr 37 min 28 sec) 
Heartbeat CPU 0 instructions: 60000000 cycles: 108731009 heartbeat IPC: 0.295484 cumulative IPC: 0.487149 (Simulation time: 0 hr 38 min 8 sec) 
Heartbeat CPU 0 instructions: 61000001 cycles: 113752645 heartbeat IPC: 0.199138 cumulative IPC: 0.473715 (Simulation time: 0 hr 38 min 52 sec) 
Heartbeat CPU 0 instructions: 62000000 cycles: 115491367 heartbeat IPC: 0.575135 cumulative IPC: 0.475327 (Simulation time: 0 hr 39 min 27 sec) 
Heartbeat CPU 0 instructions: 63000000 cycles: 117233815 heartbeat IPC: 0.573905 cumulative IPC: 0.476872 (Simulation time: 0 hr 40 min 5 sec) 
Heartbeat CPU 0 instructions: 64000000 cycles: 118970701 heartbeat IPC: 0.575743 cumulative IPC: 0.478393 (Simulation time: 0 hr 40 min 41 sec) 
Heartbeat CPU 0 instructions: 65000002 cycles: 120633450 heartbeat IPC: 0.601415 cumulative IPC: 0.480179 (Simulation time: 0 hr 41 min 19 sec) 
Heartbeat CPU 0 instructions: 66000003 cycles: 122341663 heartbeat IPC: 0.585408 cumulative IPC: 0.481726 (Simulation time: 0 hr 41 min 59 sec) 
Heartbeat CPU 0 instructions: 67000001 cycles: 124083181 heartbeat IPC: 0.574211 cumulative IPC: 0.483091 (Simulation time: 0 hr 42 min 36 sec) 
Heartbeat CPU 0 instructions: 68000000 cycles: 125825237 heartbeat IPC: 0.574034 cumulative IPC: 0.484414 (Simulation time: 0 hr 43 min 14 sec) 
Heartbeat CPU 0 instructions: 69000003 cycles: 127543737 heartbeat IPC: 0.581905 cumulative IPC: 0.485793 (Simulation time: 0 hr 43 min 56 sec) 
Heartbeat CPU 0 instructions: 70000000 cycles: 129199534 heartbeat IPC: 0.603937 cumulative IPC: 0.487382 (Simulation time: 0 hr 44 min 34 sec) 
Heartbeat CPU 0 instructions: 71000002 cycles: 130931290 heartbeat IPC: 0.57745 cumulative IPC: 0.488632 (Simulation time: 0 hr 45 min 13 sec) 
Heartbeat CPU 0 instructions: 72000000 cycles: 132673352 heartbeat IPC: 0.574031 cumulative IPC: 0.489807 (Simulation time: 0 hr 45 min 50 sec) 
Heartbeat CPU 0 instructions: 73000001 cycles: 135146429 heartbeat IPC: 0.404355 cumulative IPC: 0.48817 (Simulation time: 0 hr 46 min 28 sec) 
Heartbeat CPU 0 instructions: 74000002 cycles: 141132320 heartbeat IPC: 0.16706 cumulative IPC: 0.473936 (Simulation time: 0 hr 47 min 12 sec) 
Heartbeat CPU 0 instructions: 75000002 cycles: 142833862 heartbeat IPC: 0.587702 cumulative IPC: 0.475351 (Simulation time: 0 hr 47 min 51 sec) 
Heartbeat CPU 0 instructions: 76000000 cycles: 144577045 heartbeat IPC: 0.573662 cumulative IPC: 0.476589 (Simulation time: 0 hr 48 min 32 sec) 
Heartbeat CPU 0 instructions: 77000001 cycles: 146318790 heartbeat IPC: 0.574137 cumulative IPC: 0.477801 (Simulation time: 0 hr 49 min 15 sec) 
Heartbeat CPU 0 instructions: 78000000 cycles: 148044141 heartbeat IPC: 0.579592 cumulative IPC: 0.479038 (Simulation time: 0 hr 49 min 51 sec) 
Heartbeat CPU 0 instructions: 79000003 cycles: 149694075 heartbeat IPC: 0.606087 cumulative IPC: 0.480498 (Simulation time: 0 hr 50 min 30 sec) 
Heartbeat CPU 0 instructions: 80000000 cycles: 151427597 heartbeat IPC: 0.576859 cumulative IPC: 0.481647 (Simulation time: 0 hr 51 min 6 sec) 
Heartbeat CPU 0 instructions: 81000002 cycles: 153170002 heartbeat IPC: 0.573921 cumulative IPC: 0.48274 (Simulation time: 0 hr 51 min 42 sec) 
Heartbeat CPU 0 instructions: 82000000 cycles: 154911394 heartbeat IPC: 0.574252 cumulative IPC: 0.483811 (Simulation time: 0 hr 52 min 20 sec) 
Heartbeat CPU 0 instructions: 83000000 cycles: 156602134 heartbeat IPC: 0.591457 cumulative IPC: 0.48502 (Simulation time: 0 hr 52 min 57 sec) 
Heartbeat CPU 0 instructions: 84000000 cycles: 158281388 heartbeat IPC: 0.595503 cumulative IPC: 0.486239 (Simulation time: 0 hr 53 min 32 sec) 
Heartbeat CPU 0 instructions: 85000003 cycles: 160046652 heartbeat IPC: 0.566489 cumulative IPC: 0.487159 (Simulation time: 0 hr 54 min 7 sec) 
Heartbeat CPU 0 instructions: 86000000 cycles: 161789513 heartbeat IPC: 0.573767 cumulative IPC: 0.488129 (Simulation time: 0 hr 54 min 40 sec) 
Heartbeat CPU 0 instructions: 87000001 cycles: 168620978 heartbeat IPC: 0.146382 cumulative IPC: 0.473764 (Simulation time: 0 hr 55 min 16 sec) 
Heartbeat CPU 0 instructions: 88000000 cycles: 170269020 heartbeat IPC: 0.60678 cumulative IPC: 0.4751 (Simulation time: 0 hr 55 min 45 sec) 
Heartbeat CPU 0 instructions: 89000002 cycles: 172000514 heartbeat IPC: 0.577537 cumulative IPC: 0.476169 (Simulation time: 0 hr 56 min 14 sec) 
Heartbeat CPU 0 instructions: 90000001 cycles: 173770055 heartbeat IPC: 0.565118 cumulative IPC: 0.477107 (Simulation time: 0 hr 56 min 41 sec) 
Heartbeat CPU 0 instructions: 91000002 cycles: 175511144 heartbeat IPC: 0.574354 cumulative IPC: 0.478107 (Simulation time: 0 hr 57 min 7 sec) 
Heartbeat CPU 0 instructions: 92000000 cycles: 177208415 heartbeat IPC: 0.58918 cumulative IPC: 0.479208 (Simulation time: 0 hr 57 min 34 sec) 
Heartbeat CPU 0 instructions: 93000002 cycles: 178881642 heartbeat IPC: 0.597649 cumulative IPC: 0.480355 (Simulation time: 0 hr 57 min 58 sec) 
Heartbeat CPU 0 instructions: 94000002 cycles: 180619567 heartbeat IPC: 0.575399 cumulative IPC: 0.481302 (Simulation time: 0 hr 58 min 22 sec) 
Heartbeat CPU 0 instructions: 95000003 cycles: 182362536 heartbeat IPC: 0.573734 cumulative IPC: 0.482216 (Simulation time: 0 hr 58 min 46 sec) 
Heartbeat CPU 0 instructions: 96000000 cycles: 184100531 heartbeat IPC: 0.575374 cumulative IPC: 0.483125 (Simulation time: 0 hr 59 min 9 sec) 
Heartbeat CPU 0 instructions: 97000003 cycles: 185765811 heartbeat IPC: 0.600501 cumulative IPC: 0.484213 (Simulation time: 0 hr 59 min 33 sec) 
Heartbeat CPU 0 instructions: 98000003 cycles: 187470082 heartbeat IPC: 0.586761 cumulative IPC: 0.485177 (Simulation time: 0 hr 59 min 56 sec) 
Heartbeat CPU 0 instructions: 99000000 cycles: 189211194 heartbeat IPC: 0.574344 cumulative IPC: 0.486025 (Simulation time: 1 hr 0 min 19 sec) 
Heartbeat CPU 0 instructions: 100000000 cycles: 196044104 heartbeat IPC: 0.146351 cumulative IPC: 0.473806 (Simulation time: 1 hr 0 min 44 sec) 
Heartbeat CPU 0 instructions: 101000000 cycles: 197746519 heartbeat IPC: 0.587401 cumulative IPC: 0.474815 (Simulation time: 1 hr 1 min 5 sec) 
Heartbeat CPU 0 instructions: 102000003 cycles: 199417955 heartbeat IPC: 0.59829 cumulative IPC: 0.475882 (Simulation time: 1 hr 1 min 26 sec) 
Heartbeat CPU 0 instructions: 103000000 cycles: 201155393 heartbeat IPC: 0.575558 cumulative IPC: 0.47677 (Simulation time: 1 hr 1 min 45 sec) 
Heartbeat CPU 0 instructions: 104000000 cycles: 202898244 heartbeat IPC: 0.573772 cumulative IPC: 0.477629 (Simulation time: 1 hr 2 min 3 sec) 
Heartbeat CPU 0 instructions: 105000001 cycles: 204636287 heartbeat IPC: 0.57536 cumulative IPC: 0.478485 (Simulation time: 1 hr 2 min 19 sec) 
Heartbeat CPU 0 instructions: 106000000 cycles: 206307440 heartbeat IPC: 0.598389 cumulative IPC: 0.479486 (Simulation time: 1 hr 2 min 34 sec) 
Heartbeat CPU 0 instructions: 107000001 cycles: 208006356 heartbeat IPC: 0.588611 cumulative IPC: 0.480404 (Simulation time: 1 hr 2 min 49 sec) 
Heartbeat CPU 0 instructions: 108000000 cycles: 209748727 heartbeat IPC: 0.57393 cumulative IPC: 0.481204 (Simulation time: 1 hr 3 min 4 sec) 
Heartbeat CPU 0 instructions: 109000002 cycles: 211490581 heartbeat IPC: 0.574102 cumulative IPC: 0.481992 (Simulation time: 1 hr 3 min 16 sec) 
Heartbeat CPU 0 instructions: 110000001 cycles: 213217980 heartbeat IPC: 0.578904 cumulative IPC: 0.4828 (Simulation time: 1 hr 3 min 30 sec) 
Finished CPU 0 instructions: 100000003 cycles: 207125070 cummulative IPC: 0.4828 (Simulation time: 1 hr 3 min 30 sec) 

ChampSim completed all CPUs

Region of Interest Statistics

CPU 0 cummulative IPC: 0.4828 instructions: 100000003 cycles: 207125070
LLC TOTAL     ACCESS:    1111737  HIT:     197500  MISS:     914237
LLC LOAD      ACCESS:      27705  HIT:       3223  MISS:      24482
LLC RFO       ACCESS:     245174  HIT:      13766  MISS:     231408
LLC PREFETCH  ACCESS:     593348  HIT:      83950  MISS:     509398
LLC WRITEBACK ACCESS:     245510  HIT:      96561  MISS:     148949
Insertion Distribution: 
	LOAD 0 0 3417 22597 
	RFO 54172 0 30316 178115 
	PREF 0 9316 45391 520535 
	WRITEBACK 0 0 0 166766 
Total Prefetch Downgrades: 10854
