
*** ChampSim Multicore Out-of-Order Simulator ***

Warmup Instructions: 10000000
Simulation Instructions: 100000000
Configuration: 2
Number of CPUs: 1
LLC sets: 2048
LLC ways: 16
Off-chip DRAM Channels: 1 Width: 64-bit Data Rate: 1600 MT/s

CPU 0 runs /datasets/cs240c-wi22-a00-public/data/Assignment2-gz/gcc_56B.trace.gz
CPU 0 L1D next line prefetcher
CPU 0 L2C IP-based stride prefetcher
Initialize SRRIP state
Heartbeat CPU 0 instructions: 1000003 cycles: 954197 heartbeat IPC: 1.048 cumulative IPC: 1.048 (Simulation time: 0 hr 0 min 38 sec) 
Heartbeat CPU 0 instructions: 2000001 cycles: 1898447 heartbeat IPC: 1.05904 cumulative IPC: 1.05349 (Simulation time: 0 hr 1 min 16 sec) 
Heartbeat CPU 0 instructions: 3000001 cycles: 2885747 heartbeat IPC: 1.01286 cumulative IPC: 1.03959 (Simulation time: 0 hr 1 min 50 sec) 
Heartbeat CPU 0 instructions: 4000000 cycles: 3848429 heartbeat IPC: 1.03876 cumulative IPC: 1.03939 (Simulation time: 0 hr 2 min 28 sec) 
Heartbeat CPU 0 instructions: 5000002 cycles: 4737963 heartbeat IPC: 1.12419 cumulative IPC: 1.05531 (Simulation time: 0 hr 3 min 5 sec) 
Heartbeat CPU 0 instructions: 6000000 cycles: 5685970 heartbeat IPC: 1.05484 cumulative IPC: 1.05523 (Simulation time: 0 hr 3 min 37 sec) 
Heartbeat CPU 0 instructions: 7000000 cycles: 6650252 heartbeat IPC: 1.03704 cumulative IPC: 1.05259 (Simulation time: 0 hr 4 min 15 sec) 
Heartbeat CPU 0 instructions: 8000000 cycles: 7611519 heartbeat IPC: 1.04029 cumulative IPC: 1.05104 (Simulation time: 0 hr 4 min 53 sec) 
Heartbeat CPU 0 instructions: 9000000 cycles: 8623036 heartbeat IPC: 0.988614 cumulative IPC: 1.04372 (Simulation time: 0 hr 5 min 33 sec) 
Heartbeat CPU 0 instructions: 10000002 cycles: 9583600 heartbeat IPC: 1.04106 cumulative IPC: 1.04345 (Simulation time: 0 hr 6 min 6 sec) 

Warmup complete CPU 0 instructions: 10000002 cycles: 9583600 (Simulation time: 0 hr 6 min 6 sec) 

Heartbeat CPU 0 instructions: 11000000 cycles: 10942114 heartbeat IPC: 0.736097 cumulative IPC: 0.736097 (Simulation time: 0 hr 6 min 40 sec) 
Heartbeat CPU 0 instructions: 12000000 cycles: 12380739 heartbeat IPC: 0.695108 cumulative IPC: 0.715016 (Simulation time: 0 hr 7 min 16 sec) 
Heartbeat CPU 0 instructions: 13000001 cycles: 13778082 heartbeat IPC: 0.715645 cumulative IPC: 0.715225 (Simulation time: 0 hr 7 min 51 sec) 
Heartbeat CPU 0 instructions: 14000000 cycles: 15121483 heartbeat IPC: 0.744379 cumulative IPC: 0.722297 (Simulation time: 0 hr 8 min 31 sec) 
Heartbeat CPU 0 instructions: 15000003 cycles: 16504635 heartbeat IPC: 0.722988 cumulative IPC: 0.722435 (Simulation time: 0 hr 9 min 7 sec) 
Heartbeat CPU 0 instructions: 16000000 cycles: 17838895 heartbeat IPC: 0.749477 cumulative IPC: 0.726806 (Simulation time: 0 hr 9 min 45 sec) 
Heartbeat CPU 0 instructions: 17000001 cycles: 19170813 heartbeat IPC: 0.750798 cumulative IPC: 0.730139 (Simulation time: 0 hr 10 min 19 sec) 
Heartbeat CPU 0 instructions: 18000000 cycles: 20567172 heartbeat IPC: 0.716147 cumulative IPC: 0.72836 (Simulation time: 0 hr 10 min 55 sec) 
Heartbeat CPU 0 instructions: 19000000 cycles: 21953635 heartbeat IPC: 0.72126 cumulative IPC: 0.727564 (Simulation time: 0 hr 11 min 29 sec) 
Heartbeat CPU 0 instructions: 20000000 cycles: 23322447 heartbeat IPC: 0.730561 cumulative IPC: 0.727863 (Simulation time: 0 hr 12 min 3 sec) 
Heartbeat CPU 0 instructions: 21000000 cycles: 24674406 heartbeat IPC: 0.739667 cumulative IPC: 0.728921 (Simulation time: 0 hr 12 min 36 sec) 
Heartbeat CPU 0 instructions: 22000000 cycles: 26010645 heartbeat IPC: 0.748369 cumulative IPC: 0.730503 (Simulation time: 0 hr 13 min 11 sec) 
Heartbeat CPU 0 instructions: 23000000 cycles: 27351179 heartbeat IPC: 0.745971 cumulative IPC: 0.73167 (Simulation time: 0 hr 13 min 44 sec) 
Heartbeat CPU 0 instructions: 24000000 cycles: 28716696 heartbeat IPC: 0.732323 cumulative IPC: 0.731716 (Simulation time: 0 hr 14 min 19 sec) 
Heartbeat CPU 0 instructions: 25000000 cycles: 30092036 heartbeat IPC: 0.727093 cumulative IPC: 0.731406 (Simulation time: 0 hr 14 min 54 sec) 
Heartbeat CPU 0 instructions: 26000002 cycles: 31504457 heartbeat IPC: 0.708006 cumulative IPC: 0.729898 (Simulation time: 0 hr 15 min 30 sec) 
Heartbeat CPU 0 instructions: 27000000 cycles: 32895216 heartbeat IPC: 0.71903 cumulative IPC: 0.72925 (Simulation time: 0 hr 16 min 5 sec) 
Heartbeat CPU 0 instructions: 28000000 cycles: 34241965 heartbeat IPC: 0.742529 cumulative IPC: 0.729975 (Simulation time: 0 hr 16 min 40 sec) 
Heartbeat CPU 0 instructions: 29000000 cycles: 35591402 heartbeat IPC: 0.74105 cumulative IPC: 0.73055 (Simulation time: 0 hr 17 min 16 sec) 
Heartbeat CPU 0 instructions: 30000000 cycles: 36945208 heartbeat IPC: 0.738658 cumulative IPC: 0.730951 (Simulation time: 0 hr 17 min 52 sec) 
Heartbeat CPU 0 instructions: 31000000 cycles: 38305428 heartbeat IPC: 0.735175 cumulative IPC: 0.731151 (Simulation time: 0 hr 18 min 26 sec) 
Heartbeat CPU 0 instructions: 32000000 cycles: 39688404 heartbeat IPC: 0.723078 cumulative IPC: 0.73078 (Simulation time: 0 hr 18 min 59 sec) 
Heartbeat CPU 0 instructions: 33000002 cycles: 41102932 heartbeat IPC: 0.706951 cumulative IPC: 0.729711 (Simulation time: 0 hr 19 min 35 sec) 
Heartbeat CPU 0 instructions: 34000002 cycles: 42473801 heartbeat IPC: 0.729464 cumulative IPC: 0.729701 (Simulation time: 0 hr 20 min 9 sec) 
Heartbeat CPU 0 instructions: 35000002 cycles: 43832060 heartbeat IPC: 0.736237 cumulative IPC: 0.72996 (Simulation time: 0 hr 20 min 43 sec) 
Heartbeat CPU 0 instructions: 36000000 cycles: 45172698 heartbeat IPC: 0.745912 cumulative IPC: 0.730561 (Simulation time: 0 hr 21 min 19 sec) 
Heartbeat CPU 0 instructions: 37000000 cycles: 46497305 heartbeat IPC: 0.754941 cumulative IPC: 0.731436 (Simulation time: 0 hr 21 min 56 sec) 
Heartbeat CPU 0 instructions: 38000002 cycles: 47844564 heartbeat IPC: 0.742249 cumulative IPC: 0.731816 (Simulation time: 0 hr 22 min 37 sec) 
Heartbeat CPU 0 instructions: 39000000 cycles: 49258339 heartbeat IPC: 0.707325 cumulative IPC: 0.730944 (Simulation time: 0 hr 23 min 16 sec) 
Heartbeat CPU 0 instructions: 40000000 cycles: 50637635 heartbeat IPC: 0.725008 cumulative IPC: 0.730744 (Simulation time: 0 hr 23 min 52 sec) 
Heartbeat CPU 0 instructions: 41000001 cycles: 51992936 heartbeat IPC: 0.737844 cumulative IPC: 0.730971 (Simulation time: 0 hr 24 min 28 sec) 
Heartbeat CPU 0 instructions: 42000003 cycles: 53334936 heartbeat IPC: 0.745158 cumulative IPC: 0.731406 (Simulation time: 0 hr 25 min 1 sec) 
Heartbeat CPU 0 instructions: 43000001 cycles: 54683079 heartbeat IPC: 0.74176 cumulative IPC: 0.731716 (Simulation time: 0 hr 25 min 37 sec) 
Heartbeat CPU 0 instructions: 44000000 cycles: 56021803 heartbeat IPC: 0.746979 cumulative IPC: 0.732156 (Simulation time: 0 hr 26 min 13 sec) 
Heartbeat CPU 0 instructions: 45000000 cycles: 57401811 heartbeat IPC: 0.724633 cumulative IPC: 0.731939 (Simulation time: 0 hr 26 min 50 sec) 
Heartbeat CPU 0 instructions: 46000000 cycles: 58808236 heartbeat IPC: 0.711023 cumulative IPC: 0.731341 (Simulation time: 0 hr 27 min 27 sec) 
Heartbeat CPU 0 instructions: 47000002 cycles: 60195846 heartbeat IPC: 0.720665 cumulative IPC: 0.731048 (Simulation time: 0 hr 28 min 5 sec) 
Heartbeat CPU 0 instructions: 48000000 cycles: 61555148 heartbeat IPC: 0.73567 cumulative IPC: 0.731169 (Simulation time: 0 hr 28 min 43 sec) 
Heartbeat CPU 0 instructions: 49000002 cycles: 62896597 heartbeat IPC: 0.745464 cumulative IPC: 0.731529 (Simulation time: 0 hr 29 min 21 sec) 
Heartbeat CPU 0 instructions: 50000000 cycles: 64235131 heartbeat IPC: 0.747084 cumulative IPC: 0.73191 (Simulation time: 0 hr 29 min 59 sec) 
Heartbeat CPU 0 instructions: 51000000 cycles: 65605577 heartbeat IPC: 0.729689 cumulative IPC: 0.731856 (Simulation time: 0 hr 30 min 37 sec) 
Heartbeat CPU 0 instructions: 52000000 cycles: 67009591 heartbeat IPC: 0.712244 cumulative IPC: 0.731376 (Simulation time: 0 hr 31 min 12 sec) 
Heartbeat CPU 0 instructions: 53000001 cycles: 68361719 heartbeat IPC: 0.739576 cumulative IPC: 0.731565 (Simulation time: 0 hr 31 min 48 sec) 
Heartbeat CPU 0 instructions: 54000000 cycles: 69693268 heartbeat IPC: 0.751004 cumulative IPC: 0.731995 (Simulation time: 0 hr 32 min 23 sec) 
Heartbeat CPU 0 instructions: 55000001 cycles: 71011934 heartbeat IPC: 0.758343 cumulative IPC: 0.732561 (Simulation time: 0 hr 33 min 0 sec) 
Heartbeat CPU 0 instructions: 56000000 cycles: 72346199 heartbeat IPC: 0.749476 cumulative IPC: 0.732921 (Simulation time: 0 hr 33 min 41 sec) 
Heartbeat CPU 0 instructions: 57000001 cycles: 73695183 heartbeat IPC: 0.741299 cumulative IPC: 0.733097 (Simulation time: 0 hr 34 min 16 sec) 
Heartbeat CPU 0 instructions: 58000000 cycles: 75084478 heartbeat IPC: 0.719789 cumulative IPC: 0.732815 (Simulation time: 0 hr 34 min 52 sec) 
Heartbeat CPU 0 instructions: 59000000 cycles: 76492086 heartbeat IPC: 0.710425 cumulative IPC: 0.732344 (Simulation time: 0 hr 35 min 29 sec) 
Heartbeat CPU 0 instructions: 60000000 cycles: 77879125 heartbeat IPC: 0.72096 cumulative IPC: 0.732112 (Simulation time: 0 hr 36 min 11 sec) 
Heartbeat CPU 0 instructions: 61000000 cycles: 79225633 heartbeat IPC: 0.742662 cumulative IPC: 0.732316 (Simulation time: 0 hr 36 min 46 sec) 
Heartbeat CPU 0 instructions: 62000002 cycles: 80602367 heartbeat IPC: 0.726358 cumulative IPC: 0.732201 (Simulation time: 0 hr 37 min 26 sec) 
Heartbeat CPU 0 instructions: 63000003 cycles: 81935028 heartbeat IPC: 0.750379 cumulative IPC: 0.732536 (Simulation time: 0 hr 38 min 2 sec) 
Heartbeat CPU 0 instructions: 64000000 cycles: 83268304 heartbeat IPC: 0.75003 cumulative IPC: 0.732852 (Simulation time: 0 hr 38 min 37 sec) 
Heartbeat CPU 0 instructions: 65000000 cycles: 84629841 heartbeat IPC: 0.734464 cumulative IPC: 0.732881 (Simulation time: 0 hr 39 min 16 sec) 
Heartbeat CPU 0 instructions: 66000002 cycles: 86034812 heartbeat IPC: 0.71176 cumulative IPC: 0.732493 (Simulation time: 0 hr 39 min 58 sec) 
Heartbeat CPU 0 instructions: 67000002 cycles: 87436866 heartbeat IPC: 0.713239 cumulative IPC: 0.732147 (Simulation time: 0 hr 40 min 36 sec) 
Heartbeat CPU 0 instructions: 68000000 cycles: 88803932 heartbeat IPC: 0.731492 cumulative IPC: 0.732135 (Simulation time: 0 hr 41 min 13 sec) 
Heartbeat CPU 0 instructions: 69000000 cycles: 90147432 heartbeat IPC: 0.744325 cumulative IPC: 0.732339 (Simulation time: 0 hr 41 min 49 sec) 
Heartbeat CPU 0 instructions: 70000000 cycles: 91491216 heartbeat IPC: 0.744167 cumulative IPC: 0.732533 (Simulation time: 0 hr 42 min 28 sec) 
Heartbeat CPU 0 instructions: 71000003 cycles: 92846996 heartbeat IPC: 0.737585 cumulative IPC: 0.732615 (Simulation time: 0 hr 43 min 4 sec) 
Heartbeat CPU 0 instructions: 72000000 cycles: 94199794 heartbeat IPC: 0.739206 cumulative IPC: 0.73272 (Simulation time: 0 hr 43 min 39 sec) 
Heartbeat CPU 0 instructions: 73000003 cycles: 95578974 heartbeat IPC: 0.725071 cumulative IPC: 0.732598 (Simulation time: 0 hr 44 min 13 sec) 
Heartbeat CPU 0 instructions: 74000001 cycles: 96989250 heartbeat IPC: 0.70908 cumulative IPC: 0.732218 (Simulation time: 0 hr 44 min 50 sec) 
Heartbeat CPU 0 instructions: 75000003 cycles: 98377591 heartbeat IPC: 0.720286 cumulative IPC: 0.732032 (Simulation time: 0 hr 45 min 27 sec) 
Heartbeat CPU 0 instructions: 76000000 cycles: 99733639 heartbeat IPC: 0.737435 cumulative IPC: 0.732113 (Simulation time: 0 hr 46 min 3 sec) 
Heartbeat CPU 0 instructions: 77000003 cycles: 101084867 heartbeat IPC: 0.74007 cumulative IPC: 0.73223 (Simulation time: 0 hr 46 min 41 sec) 
Heartbeat CPU 0 instructions: 78000001 cycles: 102433143 heartbeat IPC: 0.741686 cumulative IPC: 0.732368 (Simulation time: 0 hr 47 min 18 sec) 
Heartbeat CPU 0 instructions: 79000000 cycles: 103802295 heartbeat IPC: 0.730378 cumulative IPC: 0.732339 (Simulation time: 0 hr 47 min 54 sec) 
Heartbeat CPU 0 instructions: 80000000 cycles: 105161430 heartbeat IPC: 0.735762 cumulative IPC: 0.732387 (Simulation time: 0 hr 48 min 27 sec) 
Heartbeat CPU 0 instructions: 81000002 cycles: 106552685 heartbeat IPC: 0.718777 cumulative IPC: 0.732192 (Simulation time: 0 hr 49 min 5 sec) 
Heartbeat CPU 0 instructions: 82000000 cycles: 107936470 heartbeat IPC: 0.722654 cumulative IPC: 0.732058 (Simulation time: 0 hr 49 min 39 sec) 
Heartbeat CPU 0 instructions: 83000003 cycles: 109281560 heartbeat IPC: 0.743447 cumulative IPC: 0.732212 (Simulation time: 0 hr 50 min 14 sec) 
Heartbeat CPU 0 instructions: 84000000 cycles: 110635948 heartbeat IPC: 0.738339 cumulative IPC: 0.732294 (Simulation time: 0 hr 50 min 47 sec) 
Heartbeat CPU 0 instructions: 85000002 cycles: 111964667 heartbeat IPC: 0.752606 cumulative IPC: 0.732557 (Simulation time: 0 hr 51 min 24 sec) 
Heartbeat CPU 0 instructions: 86000003 cycles: 113287181 heartbeat IPC: 0.756136 cumulative IPC: 0.732858 (Simulation time: 0 hr 51 min 59 sec) 
Heartbeat CPU 0 instructions: 87000000 cycles: 114687357 heartbeat IPC: 0.714194 cumulative IPC: 0.732609 (Simulation time: 0 hr 52 min 31 sec) 
Heartbeat CPU 0 instructions: 88000000 cycles: 116053008 heartbeat IPC: 0.732252 cumulative IPC: 0.732605 (Simulation time: 0 hr 53 min 2 sec) 
Heartbeat CPU 0 instructions: 89000000 cycles: 117424447 heartbeat IPC: 0.729161 cumulative IPC: 0.732561 (Simulation time: 0 hr 53 min 32 sec) 
Heartbeat CPU 0 instructions: 90000000 cycles: 118757167 heartbeat IPC: 0.750345 cumulative IPC: 0.732778 (Simulation time: 0 hr 54 min 5 sec) 
Heartbeat CPU 0 instructions: 91000001 cycles: 120079047 heartbeat IPC: 0.756499 cumulative IPC: 0.733062 (Simulation time: 0 hr 54 min 34 sec) 
Heartbeat CPU 0 instructions: 92000000 cycles: 121409721 heartbeat IPC: 0.751498 cumulative IPC: 0.733281 (Simulation time: 0 hr 55 min 2 sec) 
Heartbeat CPU 0 instructions: 93000003 cycles: 122809013 heartbeat IPC: 0.714649 cumulative IPC: 0.733051 (Simulation time: 0 hr 55 min 29 sec) 
Heartbeat CPU 0 instructions: 94000000 cycles: 124169821 heartbeat IPC: 0.734855 cumulative IPC: 0.733072 (Simulation time: 0 hr 55 min 57 sec) 
Heartbeat CPU 0 instructions: 95000000 cycles: 125535820 heartbeat IPC: 0.732065 cumulative IPC: 0.733061 (Simulation time: 0 hr 56 min 24 sec) 
Heartbeat CPU 0 instructions: 96000000 cycles: 126884758 heartbeat IPC: 0.741324 cumulative IPC: 0.733156 (Simulation time: 0 hr 56 min 48 sec) 
Heartbeat CPU 0 instructions: 97000000 cycles: 128214542 heartbeat IPC: 0.752002 cumulative IPC: 0.733367 (Simulation time: 0 hr 57 min 12 sec) 
Heartbeat CPU 0 instructions: 98000003 cycles: 129543563 heartbeat IPC: 0.752436 cumulative IPC: 0.733578 (Simulation time: 0 hr 57 min 35 sec) 
Heartbeat CPU 0 instructions: 99000000 cycles: 130945774 heartbeat IPC: 0.713157 cumulative IPC: 0.733342 (Simulation time: 0 hr 57 min 57 sec) 
Heartbeat CPU 0 instructions: 100000000 cycles: 132304920 heartbeat IPC: 0.735756 cumulative IPC: 0.733369 (Simulation time: 0 hr 58 min 19 sec) 
Heartbeat CPU 0 instructions: 101000000 cycles: 133669868 heartbeat IPC: 0.732629 cumulative IPC: 0.733361 (Simulation time: 0 hr 58 min 40 sec) 
Heartbeat CPU 0 instructions: 102000001 cycles: 135003916 heartbeat IPC: 0.749599 cumulative IPC: 0.733533 (Simulation time: 0 hr 59 min 1 sec) 
Heartbeat CPU 0 instructions: 103000001 cycles: 136322244 heartbeat IPC: 0.758537 cumulative IPC: 0.733794 (Simulation time: 0 hr 59 min 21 sec) 
Heartbeat CPU 0 instructions: 104000000 cycles: 137640614 heartbeat IPC: 0.758512 cumulative IPC: 0.734048 (Simulation time: 0 hr 59 min 42 sec) 
Heartbeat CPU 0 instructions: 105000002 cycles: 139031373 heartbeat IPC: 0.719033 cumulative IPC: 0.733887 (Simulation time: 1 hr 0 min 3 sec) 
Heartbeat CPU 0 instructions: 106000000 cycles: 140451997 heartbeat IPC: 0.703915 cumulative IPC: 0.733561 (Simulation time: 1 hr 0 min 21 sec) 
Heartbeat CPU 0 instructions: 107000002 cycles: 141853725 heartbeat IPC: 0.713407 cumulative IPC: 0.733348 (Simulation time: 1 hr 0 min 40 sec) 
Heartbeat CPU 0 instructions: 108000000 cycles: 143221688 heartbeat IPC: 0.731012 cumulative IPC: 0.733324 (Simulation time: 1 hr 0 min 59 sec) 
Heartbeat CPU 0 instructions: 109000000 cycles: 144572362 heartbeat IPC: 0.740371 cumulative IPC: 0.733394 (Simulation time: 1 hr 1 min 17 sec) 
Heartbeat CPU 0 instructions: 110000000 cycles: 145916529 heartbeat IPC: 0.743955 cumulative IPC: 0.733499 (Simulation time: 1 hr 1 min 35 sec) 
Finished CPU 0 instructions: 100000003 cycles: 136332931 cummulative IPC: 0.733499 (Simulation time: 1 hr 1 min 35 sec) 

ChampSim completed all CPUs

Region of Interest Statistics

CPU 0 cummulative IPC: 0.733499 instructions: 100000003 cycles: 136332931
LLC TOTAL     ACCESS:   21346121  HIT:   21179731  MISS:     166390
LLC LOAD      ACCESS:     165904  HIT:     122452  MISS:      43452
LLC RFO       ACCESS:   10463422  HIT:   10394148  MISS:      69274
LLC PREFETCH  ACCESS:     183307  HIT:     137430  MISS:      45877
LLC WRITEBACK ACCESS:   10533488  HIT:   10525701  MISS:       7787
Insertion Distribution: 
	LOAD 2128 0 21238 24631 
	RFO 66250 0 13837 5120 
	PREF 0 3099 19342 27719 
	WRITEBACK 0 0 0 8527 
Total Prefetch Downgrades: 5014
