
*** ChampSim Multicore Out-of-Order Simulator ***

Warmup Instructions: 10000000
Simulation Instructions: 100000000
Configuration: 2
Number of CPUs: 1
LLC sets: 2048
LLC ways: 16
Off-chip DRAM Channels: 1 Width: 64-bit Data Rate: 1600 MT/s

CPU 0 runs /datasets/cs240c-wi22-a00-public/data/Assignment2-gz/omnetpp_340B.trace.gz
CPU 0 L1D next line prefetcher
CPU 0 L2C IP-based stride prefetcher
Initialize SRRIP state
Heartbeat CPU 0 instructions: 1000001 cycles: 577000 heartbeat IPC: 1.7331 cumulative IPC: 1.7331 (Simulation time: 0 hr 0 min 41 sec) 
Heartbeat CPU 0 instructions: 2000000 cycles: 1160963 heartbeat IPC: 1.71244 cumulative IPC: 1.72271 (Simulation time: 0 hr 1 min 20 sec) 
Heartbeat CPU 0 instructions: 3000001 cycles: 1758283 heartbeat IPC: 1.67415 cumulative IPC: 1.70621 (Simulation time: 0 hr 1 min 57 sec) 
Heartbeat CPU 0 instructions: 4000000 cycles: 2379341 heartbeat IPC: 1.61015 cumulative IPC: 1.68114 (Simulation time: 0 hr 2 min 36 sec) 
Heartbeat CPU 0 instructions: 5000002 cycles: 2954750 heartbeat IPC: 1.7379 cumulative IPC: 1.69219 (Simulation time: 0 hr 3 min 13 sec) 
Heartbeat CPU 0 instructions: 6000003 cycles: 3556205 heartbeat IPC: 1.66264 cumulative IPC: 1.68719 (Simulation time: 0 hr 3 min 51 sec) 
Heartbeat CPU 0 instructions: 7000003 cycles: 4205613 heartbeat IPC: 1.53986 cumulative IPC: 1.66444 (Simulation time: 0 hr 4 min 30 sec) 
Heartbeat CPU 0 instructions: 8000000 cycles: 4800242 heartbeat IPC: 1.68172 cumulative IPC: 1.66658 (Simulation time: 0 hr 5 min 10 sec) 
Heartbeat CPU 0 instructions: 9000002 cycles: 5433852 heartbeat IPC: 1.57826 cumulative IPC: 1.65628 (Simulation time: 0 hr 5 min 49 sec) 
Heartbeat CPU 0 instructions: 10000002 cycles: 6028440 heartbeat IPC: 1.68184 cumulative IPC: 1.6588 (Simulation time: 0 hr 6 min 29 sec) 

Warmup complete CPU 0 instructions: 10000002 cycles: 6028440 (Simulation time: 0 hr 6 min 29 sec) 

Heartbeat CPU 0 instructions: 11000000 cycles: 9825251 heartbeat IPC: 0.263378 cumulative IPC: 0.263378 (Simulation time: 0 hr 7 min 21 sec) 
Heartbeat CPU 0 instructions: 12000000 cycles: 13458647 heartbeat IPC: 0.275225 cumulative IPC: 0.269171 (Simulation time: 0 hr 8 min 8 sec) 
Heartbeat CPU 0 instructions: 13000000 cycles: 17483459 heartbeat IPC: 0.248459 cumulative IPC: 0.261894 (Simulation time: 0 hr 8 min 56 sec) 
Heartbeat CPU 0 instructions: 14000001 cycles: 21460773 heartbeat IPC: 0.251426 cumulative IPC: 0.259196 (Simulation time: 0 hr 9 min 43 sec) 
Heartbeat CPU 0 instructions: 15000003 cycles: 25582702 heartbeat IPC: 0.242605 cumulative IPC: 0.255699 (Simulation time: 0 hr 10 min 36 sec) 
Heartbeat CPU 0 instructions: 16000000 cycles: 29883218 heartbeat IPC: 0.23253 cumulative IPC: 0.251522 (Simulation time: 0 hr 11 min 27 sec) 
Heartbeat CPU 0 instructions: 17000000 cycles: 33699667 heartbeat IPC: 0.262024 cumulative IPC: 0.25297 (Simulation time: 0 hr 12 min 16 sec) 
Heartbeat CPU 0 instructions: 18000000 cycles: 37764914 heartbeat IPC: 0.245988 cumulative IPC: 0.252076 (Simulation time: 0 hr 13 min 5 sec) 
Heartbeat CPU 0 instructions: 19000000 cycles: 42236096 heartbeat IPC: 0.223655 cumulative IPC: 0.248566 (Simulation time: 0 hr 13 min 57 sec) 
Heartbeat CPU 0 instructions: 20000000 cycles: 46517059 heartbeat IPC: 0.233592 cumulative IPC: 0.246983 (Simulation time: 0 hr 14 min 45 sec) 
Heartbeat CPU 0 instructions: 21000000 cycles: 50112634 heartbeat IPC: 0.27812 cumulative IPC: 0.249522 (Simulation time: 0 hr 15 min 35 sec) 
Heartbeat CPU 0 instructions: 22000001 cycles: 54158460 heartbeat IPC: 0.247169 cumulative IPC: 0.249325 (Simulation time: 0 hr 16 min 24 sec) 
Heartbeat CPU 0 instructions: 23000001 cycles: 58078666 heartbeat IPC: 0.255089 cumulative IPC: 0.249759 (Simulation time: 0 hr 17 min 10 sec) 
Heartbeat CPU 0 instructions: 24000000 cycles: 61913716 heartbeat IPC: 0.260753 cumulative IPC: 0.250513 (Simulation time: 0 hr 17 min 56 sec) 
Heartbeat CPU 0 instructions: 25000000 cycles: 66032601 heartbeat IPC: 0.242784 cumulative IPC: 0.249983 (Simulation time: 0 hr 18 min 44 sec) 
Heartbeat CPU 0 instructions: 26000001 cycles: 70167490 heartbeat IPC: 0.241845 cumulative IPC: 0.249458 (Simulation time: 0 hr 19 min 36 sec) 
Heartbeat CPU 0 instructions: 27000000 cycles: 74352474 heartbeat IPC: 0.238949 cumulative IPC: 0.248814 (Simulation time: 0 hr 20 min 23 sec) 
Heartbeat CPU 0 instructions: 28000000 cycles: 78582322 heartbeat IPC: 0.236415 cumulative IPC: 0.248091 (Simulation time: 0 hr 21 min 20 sec) 
Heartbeat CPU 0 instructions: 29000003 cycles: 82818113 heartbeat IPC: 0.236084 cumulative IPC: 0.247429 (Simulation time: 0 hr 22 min 10 sec) 
Heartbeat CPU 0 instructions: 30000000 cycles: 86631666 heartbeat IPC: 0.262222 cumulative IPC: 0.248129 (Simulation time: 0 hr 22 min 56 sec) 
Heartbeat CPU 0 instructions: 31000000 cycles: 90655239 heartbeat IPC: 0.248535 cumulative IPC: 0.248148 (Simulation time: 0 hr 23 min 46 sec) 
Heartbeat CPU 0 instructions: 32000000 cycles: 94561090 heartbeat IPC: 0.256026 cumulative IPC: 0.248496 (Simulation time: 0 hr 24 min 31 sec) 
Heartbeat CPU 0 instructions: 33000003 cycles: 98450629 heartbeat IPC: 0.257101 cumulative IPC: 0.248858 (Simulation time: 0 hr 25 min 19 sec) 
Heartbeat CPU 0 instructions: 34000001 cycles: 102695822 heartbeat IPC: 0.23556 cumulative IPC: 0.248274 (Simulation time: 0 hr 26 min 7 sec) 
Heartbeat CPU 0 instructions: 35000002 cycles: 106350578 heartbeat IPC: 0.273616 cumulative IPC: 0.249197 (Simulation time: 0 hr 26 min 52 sec) 
Heartbeat CPU 0 instructions: 36000000 cycles: 110783584 heartbeat IPC: 0.22558 cumulative IPC: 0.248198 (Simulation time: 0 hr 27 min 41 sec) 
Heartbeat CPU 0 instructions: 37000000 cycles: 115311564 heartbeat IPC: 0.220849 cumulative IPC: 0.247065 (Simulation time: 0 hr 28 min 29 sec) 
Heartbeat CPU 0 instructions: 38000000 cycles: 119257456 heartbeat IPC: 0.253428 cumulative IPC: 0.247286 (Simulation time: 0 hr 29 min 15 sec) 
Heartbeat CPU 0 instructions: 39000001 cycles: 123496667 heartbeat IPC: 0.235893 cumulative IPC: 0.246875 (Simulation time: 0 hr 30 min 1 sec) 
Heartbeat CPU 0 instructions: 40000000 cycles: 127050773 heartbeat IPC: 0.281364 cumulative IPC: 0.247888 (Simulation time: 0 hr 30 min 44 sec) 
Heartbeat CPU 0 instructions: 41000000 cycles: 130830439 heartbeat IPC: 0.264574 cumulative IPC: 0.248393 (Simulation time: 0 hr 31 min 29 sec) 
Heartbeat CPU 0 instructions: 42000001 cycles: 135211038 heartbeat IPC: 0.22828 cumulative IPC: 0.247711 (Simulation time: 0 hr 32 min 13 sec) 
Heartbeat CPU 0 instructions: 43000001 cycles: 139442878 heartbeat IPC: 0.236304 cumulative IPC: 0.24735 (Simulation time: 0 hr 32 min 59 sec) 
Heartbeat CPU 0 instructions: 44000000 cycles: 143245544 heartbeat IPC: 0.262973 cumulative IPC: 0.247783 (Simulation time: 0 hr 33 min 45 sec) 
Heartbeat CPU 0 instructions: 45000003 cycles: 147242421 heartbeat IPC: 0.250196 cumulative IPC: 0.247851 (Simulation time: 0 hr 34 min 27 sec) 
Heartbeat CPU 0 instructions: 46000003 cycles: 151551438 heartbeat IPC: 0.232071 cumulative IPC: 0.247384 (Simulation time: 0 hr 35 min 12 sec) 
Heartbeat CPU 0 instructions: 47000000 cycles: 154957382 heartbeat IPC: 0.293603 cumulative IPC: 0.248441 (Simulation time: 0 hr 35 min 58 sec) 
Heartbeat CPU 0 instructions: 48000000 cycles: 159204958 heartbeat IPC: 0.235428 cumulative IPC: 0.24808 (Simulation time: 0 hr 36 min 47 sec) 
Heartbeat CPU 0 instructions: 49000000 cycles: 162390185 heartbeat IPC: 0.313949 cumulative IPC: 0.249422 (Simulation time: 0 hr 37 min 32 sec) 
Heartbeat CPU 0 instructions: 50000001 cycles: 166571974 heartbeat IPC: 0.239132 cumulative IPC: 0.249154 (Simulation time: 0 hr 38 min 19 sec) 
Heartbeat CPU 0 instructions: 51000003 cycles: 170467363 heartbeat IPC: 0.256714 cumulative IPC: 0.249333 (Simulation time: 0 hr 39 min 5 sec) 
Heartbeat CPU 0 instructions: 52000000 cycles: 174581388 heartbeat IPC: 0.24307 cumulative IPC: 0.24918 (Simulation time: 0 hr 39 min 59 sec) 
Heartbeat CPU 0 instructions: 53000000 cycles: 179283802 heartbeat IPC: 0.212657 cumulative IPC: 0.248189 (Simulation time: 0 hr 40 min 46 sec) 
Heartbeat CPU 0 instructions: 54000002 cycles: 183543138 heartbeat IPC: 0.234779 cumulative IPC: 0.247867 (Simulation time: 0 hr 41 min 33 sec) 
Heartbeat CPU 0 instructions: 55000001 cycles: 187573558 heartbeat IPC: 0.248113 cumulative IPC: 0.247872 (Simulation time: 0 hr 42 min 26 sec) 
Heartbeat CPU 0 instructions: 56000000 cycles: 191979734 heartbeat IPC: 0.226954 cumulative IPC: 0.247377 (Simulation time: 0 hr 43 min 15 sec) 
Heartbeat CPU 0 instructions: 57000001 cycles: 196163879 heartbeat IPC: 0.238998 cumulative IPC: 0.247192 (Simulation time: 0 hr 44 min 3 sec) 
Heartbeat CPU 0 instructions: 58000000 cycles: 199609362 heartbeat IPC: 0.290235 cumulative IPC: 0.247958 (Simulation time: 0 hr 44 min 49 sec) 
Heartbeat CPU 0 instructions: 59000003 cycles: 203685331 heartbeat IPC: 0.245341 cumulative IPC: 0.247904 (Simulation time: 0 hr 45 min 39 sec) 
Heartbeat CPU 0 instructions: 60000000 cycles: 208318048 heartbeat IPC: 0.215855 cumulative IPC: 0.24717 (Simulation time: 0 hr 46 min 30 sec) 
Heartbeat CPU 0 instructions: 61000001 cycles: 212821800 heartbeat IPC: 0.222037 cumulative IPC: 0.246623 (Simulation time: 0 hr 47 min 20 sec) 
Heartbeat CPU 0 instructions: 62000000 cycles: 217318677 heartbeat IPC: 0.222376 cumulative IPC: 0.246107 (Simulation time: 0 hr 48 min 8 sec) 
Heartbeat CPU 0 instructions: 63000001 cycles: 221179407 heartbeat IPC: 0.259019 cumulative IPC: 0.246339 (Simulation time: 0 hr 48 min 55 sec) 
Heartbeat CPU 0 instructions: 64000000 cycles: 225104296 heartbeat IPC: 0.254784 cumulative IPC: 0.24649 (Simulation time: 0 hr 49 min 44 sec) 
Heartbeat CPU 0 instructions: 65000001 cycles: 228696477 heartbeat IPC: 0.278383 cumulative IPC: 0.247004 (Simulation time: 0 hr 50 min 32 sec) 
Heartbeat CPU 0 instructions: 66000002 cycles: 232900551 heartbeat IPC: 0.237865 cumulative IPC: 0.246835 (Simulation time: 0 hr 51 min 17 sec) 
Heartbeat CPU 0 instructions: 67000002 cycles: 236868280 heartbeat IPC: 0.252033 cumulative IPC: 0.246924 (Simulation time: 0 hr 52 min 2 sec) 
Heartbeat CPU 0 instructions: 68000000 cycles: 240848165 heartbeat IPC: 0.251263 cumulative IPC: 0.246998 (Simulation time: 0 hr 52 min 46 sec) 
Heartbeat CPU 0 instructions: 69000000 cycles: 245037434 heartbeat IPC: 0.238705 cumulative IPC: 0.246853 (Simulation time: 0 hr 53 min 33 sec) 
Heartbeat CPU 0 instructions: 70000001 cycles: 248815621 heartbeat IPC: 0.264677 cumulative IPC: 0.24713 (Simulation time: 0 hr 54 min 11 sec) 
Heartbeat CPU 0 instructions: 71000003 cycles: 252885900 heartbeat IPC: 0.245684 cumulative IPC: 0.247106 (Simulation time: 0 hr 54 min 49 sec) 
Heartbeat CPU 0 instructions: 72000000 cycles: 257543893 heartbeat IPC: 0.214684 cumulative IPC: 0.246506 (Simulation time: 0 hr 55 min 27 sec) 
Heartbeat CPU 0 instructions: 73000002 cycles: 261625295 heartbeat IPC: 0.245014 cumulative IPC: 0.246482 (Simulation time: 0 hr 56 min 0 sec) 
Heartbeat CPU 0 instructions: 74000000 cycles: 265617081 heartbeat IPC: 0.250514 cumulative IPC: 0.246544 (Simulation time: 0 hr 56 min 36 sec) 
Heartbeat CPU 0 instructions: 75000003 cycles: 269860840 heartbeat IPC: 0.235641 cumulative IPC: 0.246369 (Simulation time: 0 hr 57 min 11 sec) 
Heartbeat CPU 0 instructions: 76000000 cycles: 273856061 heartbeat IPC: 0.250298 cumulative IPC: 0.246427 (Simulation time: 0 hr 57 min 42 sec) 
Heartbeat CPU 0 instructions: 77000002 cycles: 278592954 heartbeat IPC: 0.211109 cumulative IPC: 0.245813 (Simulation time: 0 hr 58 min 12 sec) 
Heartbeat CPU 0 instructions: 78000003 cycles: 282588528 heartbeat IPC: 0.250277 cumulative IPC: 0.245878 (Simulation time: 0 hr 58 min 39 sec) 
Heartbeat CPU 0 instructions: 79000002 cycles: 286565016 heartbeat IPC: 0.251478 cumulative IPC: 0.245957 (Simulation time: 0 hr 59 min 8 sec) 
Heartbeat CPU 0 instructions: 80000000 cycles: 290474075 heartbeat IPC: 0.255816 cumulative IPC: 0.246093 (Simulation time: 0 hr 59 min 34 sec) 
Heartbeat CPU 0 instructions: 81000002 cycles: 294799360 heartbeat IPC: 0.231199 cumulative IPC: 0.24587 (Simulation time: 1 hr 0 min 3 sec) 
Heartbeat CPU 0 instructions: 82000000 cycles: 299430146 heartbeat IPC: 0.215946 cumulative IPC: 0.245397 (Simulation time: 1 hr 0 min 29 sec) 
Heartbeat CPU 0 instructions: 83000002 cycles: 303308919 heartbeat IPC: 0.257814 cumulative IPC: 0.245559 (Simulation time: 1 hr 0 min 55 sec) 
Heartbeat CPU 0 instructions: 84000000 cycles: 307339378 heartbeat IPC: 0.24811 cumulative IPC: 0.245593 (Simulation time: 1 hr 1 min 19 sec) 
Heartbeat CPU 0 instructions: 85000000 cycles: 311377812 heartbeat IPC: 0.247621 cumulative IPC: 0.24562 (Simulation time: 1 hr 1 min 43 sec) 
Heartbeat CPU 0 instructions: 86000000 cycles: 315524262 heartbeat IPC: 0.24117 cumulative IPC: 0.245561 (Simulation time: 1 hr 2 min 4 sec) 
Heartbeat CPU 0 instructions: 87000001 cycles: 319406019 heartbeat IPC: 0.257616 cumulative IPC: 0.24571 (Simulation time: 1 hr 2 min 24 sec) 
Heartbeat CPU 0 instructions: 88000000 cycles: 323352765 heartbeat IPC: 0.253373 cumulative IPC: 0.245805 (Simulation time: 1 hr 2 min 44 sec) 
Heartbeat CPU 0 instructions: 89000003 cycles: 326979413 heartbeat IPC: 0.275738 cumulative IPC: 0.246144 (Simulation time: 1 hr 3 min 1 sec) 
Heartbeat CPU 0 instructions: 90000000 cycles: 330995382 heartbeat IPC: 0.249005 cumulative IPC: 0.246179 (Simulation time: 1 hr 3 min 17 sec) 
Heartbeat CPU 0 instructions: 91000001 cycles: 334747024 heartbeat IPC: 0.26655 cumulative IPC: 0.246411 (Simulation time: 1 hr 3 min 34 sec) 
Heartbeat CPU 0 instructions: 92000000 cycles: 338995535 heartbeat IPC: 0.235376 cumulative IPC: 0.246271 (Simulation time: 1 hr 3 min 50 sec) 
Heartbeat CPU 0 instructions: 93000001 cycles: 343642915 heartbeat IPC: 0.215175 cumulative IPC: 0.245843 (Simulation time: 1 hr 4 min 6 sec) 
Heartbeat CPU 0 instructions: 94000001 cycles: 347618998 heartbeat IPC: 0.251504 cumulative IPC: 0.245908 (Simulation time: 1 hr 4 min 21 sec) 
Heartbeat CPU 0 instructions: 95000000 cycles: 351749549 heartbeat IPC: 0.242098 cumulative IPC: 0.245863 (Simulation time: 1 hr 4 min 35 sec) 
Heartbeat CPU 0 instructions: 96000000 cycles: 356208957 heartbeat IPC: 0.224245 cumulative IPC: 0.245588 (Simulation time: 1 hr 4 min 46 sec) 
Heartbeat CPU 0 instructions: 97000000 cycles: 359989489 heartbeat IPC: 0.264513 cumulative IPC: 0.24579 (Simulation time: 1 hr 4 min 55 sec) 
Heartbeat CPU 0 instructions: 98000000 cycles: 364455664 heartbeat IPC: 0.223905 cumulative IPC: 0.245517 (Simulation time: 1 hr 5 min 5 sec) 
Heartbeat CPU 0 instructions: 99000000 cycles: 369094249 heartbeat IPC: 0.215583 cumulative IPC: 0.245135 (Simulation time: 1 hr 5 min 13 sec) 
Heartbeat CPU 0 instructions: 100000000 cycles: 373354190 heartbeat IPC: 0.234745 cumulative IPC: 0.245014 (Simulation time: 1 hr 5 min 19 sec) 
Heartbeat CPU 0 instructions: 101000000 cycles: 377393157 heartbeat IPC: 0.247588 cumulative IPC: 0.245042 (Simulation time: 1 hr 5 min 26 sec) 
Heartbeat CPU 0 instructions: 102000003 cycles: 381745590 heartbeat IPC: 0.229757 cumulative IPC: 0.244865 (Simulation time: 1 hr 5 min 33 sec) 
Heartbeat CPU 0 instructions: 103000000 cycles: 385766075 heartbeat IPC: 0.248725 cumulative IPC: 0.244906 (Simulation time: 1 hr 5 min 39 sec) 
Heartbeat CPU 0 instructions: 104000000 cycles: 389706747 heartbeat IPC: 0.253764 cumulative IPC: 0.244997 (Simulation time: 1 hr 5 min 45 sec) 
Heartbeat CPU 0 instructions: 105000003 cycles: 394005466 heartbeat IPC: 0.232628 cumulative IPC: 0.24486 (Simulation time: 1 hr 5 min 51 sec) 
Heartbeat CPU 0 instructions: 106000001 cycles: 397813763 heartbeat IPC: 0.262584 cumulative IPC: 0.245032 (Simulation time: 1 hr 5 min 56 sec) 
Heartbeat CPU 0 instructions: 107000000 cycles: 402180092 heartbeat IPC: 0.229025 cumulative IPC: 0.244856 (Simulation time: 1 hr 6 min 1 sec) 
Heartbeat CPU 0 instructions: 108000000 cycles: 406328029 heartbeat IPC: 0.241084 cumulative IPC: 0.244817 (Simulation time: 1 hr 6 min 7 sec) 
Heartbeat CPU 0 instructions: 109000000 cycles: 410848965 heartbeat IPC: 0.221193 cumulative IPC: 0.244553 (Simulation time: 1 hr 6 min 12 sec) 
Heartbeat CPU 0 instructions: 110000000 cycles: 414694821 heartbeat IPC: 0.26002 cumulative IPC: 0.244698 (Simulation time: 1 hr 6 min 17 sec) 
Finished CPU 0 instructions: 100000000 cycles: 408666385 cummulative IPC: 0.244698 (Simulation time: 1 hr 6 min 17 sec) 

ChampSim completed all CPUs

Region of Interest Statistics

CPU 0 cummulative IPC: 0.244698 instructions: 100000000 cycles: 408666385
LLC TOTAL     ACCESS:    4309293  HIT:     936924  MISS:    3372369
LLC LOAD      ACCESS:    1524005  HIT:     279426  MISS:    1244579
LLC RFO       ACCESS:     249342  HIT:      56323  MISS:     193019
LLC PREFETCH  ACCESS:    1529904  HIT:     124558  MISS:    1405346
LLC WRITEBACK ACCESS:    1006042  HIT:     476617  MISS:     529425
Insertion Distribution: 
	LOAD 142918 0 137571 1075599 
	RFO 41096 0 58131 112187 
	PREF 0 8202 51208 1501376 
	WRITEBACK 0 0 0 579002 
Total Prefetch Downgrades: 13192
