
*** ChampSim Multicore Out-of-Order Simulator ***

Warmup Instructions: 10000000
Simulation Instructions: 100000000
Configuration: 2
Number of CPUs: 1
LLC sets: 2048
LLC ways: 16
Off-chip DRAM Channels: 1 Width: 64-bit Data Rate: 1600 MT/s

CPU 0 runs /datasets/cs240c-wi22-a00-public/data/Assignment2-gz/astar_23B.trace.gz
CPU 0 L1D next line prefetcher
CPU 0 L2C IP-based stride prefetcher
Initialize SRRIP state
Heartbeat CPU 0 instructions: 1000000 cycles: 359879 heartbeat IPC: 2.77871 cumulative IPC: 2.77871 (Simulation time: 0 hr 0 min 31 sec) 
Heartbeat CPU 0 instructions: 2000001 cycles: 720622 heartbeat IPC: 2.77206 cumulative IPC: 2.77538 (Simulation time: 0 hr 1 min 1 sec) 
Heartbeat CPU 0 instructions: 3000000 cycles: 1079333 heartbeat IPC: 2.78776 cumulative IPC: 2.77949 (Simulation time: 0 hr 1 min 31 sec) 
Heartbeat CPU 0 instructions: 4000000 cycles: 1440548 heartbeat IPC: 2.76843 cumulative IPC: 2.77672 (Simulation time: 0 hr 2 min 1 sec) 
Heartbeat CPU 0 instructions: 5000000 cycles: 1802486 heartbeat IPC: 2.7629 cumulative IPC: 2.77395 (Simulation time: 0 hr 2 min 33 sec) 
Heartbeat CPU 0 instructions: 6000002 cycles: 2163891 heartbeat IPC: 2.76698 cumulative IPC: 2.77278 (Simulation time: 0 hr 3 min 3 sec) 
Heartbeat CPU 0 instructions: 7000002 cycles: 2525187 heartbeat IPC: 2.76781 cumulative IPC: 2.77207 (Simulation time: 0 hr 3 min 31 sec) 
Heartbeat CPU 0 instructions: 8000000 cycles: 2887973 heartbeat IPC: 2.75644 cumulative IPC: 2.77011 (Simulation time: 0 hr 4 min 3 sec) 
Heartbeat CPU 0 instructions: 9000000 cycles: 3250697 heartbeat IPC: 2.75692 cumulative IPC: 2.76864 (Simulation time: 0 hr 4 min 31 sec) 
Heartbeat CPU 0 instructions: 10000003 cycles: 3615327 heartbeat IPC: 2.74251 cumulative IPC: 2.766 (Simulation time: 0 hr 4 min 59 sec) 

Warmup complete CPU 0 instructions: 10000003 cycles: 3615327 (Simulation time: 0 hr 4 min 59 sec) 

Heartbeat CPU 0 instructions: 11000000 cycles: 6742148 heartbeat IPC: 0.319813 cumulative IPC: 0.319813 (Simulation time: 0 hr 5 min 30 sec) 
Heartbeat CPU 0 instructions: 12000000 cycles: 9500124 heartbeat IPC: 0.362585 cumulative IPC: 0.339858 (Simulation time: 0 hr 6 min 2 sec) 
Heartbeat CPU 0 instructions: 13000002 cycles: 12075192 heartbeat IPC: 0.38834 cumulative IPC: 0.354615 (Simulation time: 0 hr 6 min 28 sec) 
Heartbeat CPU 0 instructions: 14000001 cycles: 14950189 heartbeat IPC: 0.347826 cumulative IPC: 0.352893 (Simulation time: 0 hr 6 min 55 sec) 
Heartbeat CPU 0 instructions: 15000000 cycles: 18136480 heartbeat IPC: 0.313844 cumulative IPC: 0.344325 (Simulation time: 0 hr 7 min 28 sec) 
Heartbeat CPU 0 instructions: 16000000 cycles: 20950567 heartbeat IPC: 0.355355 cumulative IPC: 0.346116 (Simulation time: 0 hr 7 min 59 sec) 
Heartbeat CPU 0 instructions: 17000002 cycles: 23636088 heartbeat IPC: 0.372368 cumulative IPC: 0.349637 (Simulation time: 0 hr 8 min 30 sec) 
Heartbeat CPU 0 instructions: 18000000 cycles: 26364346 heartbeat IPC: 0.366534 cumulative IPC: 0.351663 (Simulation time: 0 hr 8 min 58 sec) 
Heartbeat CPU 0 instructions: 19000000 cycles: 29168258 heartbeat IPC: 0.356645 cumulative IPC: 0.35221 (Simulation time: 0 hr 9 min 26 sec) 
Heartbeat CPU 0 instructions: 20000000 cycles: 32053410 heartbeat IPC: 0.346602 cumulative IPC: 0.351641 (Simulation time: 0 hr 9 min 56 sec) 
Heartbeat CPU 0 instructions: 21000001 cycles: 35028646 heartbeat IPC: 0.336108 cumulative IPC: 0.35017 (Simulation time: 0 hr 10 min 24 sec) 
Heartbeat CPU 0 instructions: 22000002 cycles: 38163067 heartbeat IPC: 0.319039 cumulative IPC: 0.347345 (Simulation time: 0 hr 10 min 53 sec) 
Heartbeat CPU 0 instructions: 23000003 cycles: 41579924 heartbeat IPC: 0.292667 cumulative IPC: 0.342424 (Simulation time: 0 hr 11 min 22 sec) 
Heartbeat CPU 0 instructions: 24000000 cycles: 45119717 heartbeat IPC: 0.282502 cumulative IPC: 0.337314 (Simulation time: 0 hr 11 min 51 sec) 
Heartbeat CPU 0 instructions: 25000000 cycles: 49077949 heartbeat IPC: 0.252638 cumulative IPC: 0.329941 (Simulation time: 0 hr 12 min 19 sec) 
Heartbeat CPU 0 instructions: 26000000 cycles: 53305148 heartbeat IPC: 0.236563 cumulative IPC: 0.321997 (Simulation time: 0 hr 12 min 48 sec) 
Heartbeat CPU 0 instructions: 27000000 cycles: 57507679 heartbeat IPC: 0.237952 cumulative IPC: 0.315444 (Simulation time: 0 hr 13 min 20 sec) 
Heartbeat CPU 0 instructions: 28000000 cycles: 61391371 heartbeat IPC: 0.257487 cumulative IPC: 0.311548 (Simulation time: 0 hr 13 min 48 sec) 
Heartbeat CPU 0 instructions: 29000000 cycles: 64931026 heartbeat IPC: 0.282513 cumulative IPC: 0.309872 (Simulation time: 0 hr 14 min 19 sec) 
Heartbeat CPU 0 instructions: 30000000 cycles: 68470894 heartbeat IPC: 0.282496 cumulative IPC: 0.308378 (Simulation time: 0 hr 14 min 44 sec) 
Heartbeat CPU 0 instructions: 31000001 cycles: 72207182 heartbeat IPC: 0.267646 cumulative IPC: 0.306159 (Simulation time: 0 hr 15 min 10 sec) 
Heartbeat CPU 0 instructions: 32000000 cycles: 76216107 heartbeat IPC: 0.249443 cumulative IPC: 0.303027 (Simulation time: 0 hr 15 min 38 sec) 
Heartbeat CPU 0 instructions: 33000001 cycles: 80435110 heartbeat IPC: 0.237023 cumulative IPC: 0.299402 (Simulation time: 0 hr 16 min 8 sec) 
Heartbeat CPU 0 instructions: 34000003 cycles: 84823748 heartbeat IPC: 0.227862 cumulative IPC: 0.295536 (Simulation time: 0 hr 16 min 36 sec) 
Heartbeat CPU 0 instructions: 35000003 cycles: 88927128 heartbeat IPC: 0.243702 cumulative IPC: 0.293043 (Simulation time: 0 hr 17 min 5 sec) 
Heartbeat CPU 0 instructions: 36000000 cycles: 93285038 heartbeat IPC: 0.229467 cumulative IPC: 0.289953 (Simulation time: 0 hr 17 min 37 sec) 
Heartbeat CPU 0 instructions: 37000000 cycles: 97817031 heartbeat IPC: 0.220653 cumulative IPC: 0.286619 (Simulation time: 0 hr 18 min 11 sec) 
Heartbeat CPU 0 instructions: 38000003 cycles: 102287062 heartbeat IPC: 0.223713 cumulative IPC: 0.283769 (Simulation time: 0 hr 18 min 43 sec) 
Heartbeat CPU 0 instructions: 39000000 cycles: 106607708 heartbeat IPC: 0.231446 cumulative IPC: 0.281574 (Simulation time: 0 hr 19 min 13 sec) 
Heartbeat CPU 0 instructions: 40000000 cycles: 110677551 heartbeat IPC: 0.24571 cumulative IPC: 0.280211 (Simulation time: 0 hr 19 min 42 sec) 
Heartbeat CPU 0 instructions: 41000003 cycles: 114822999 heartbeat IPC: 0.241229 cumulative IPC: 0.278758 (Simulation time: 0 hr 20 min 11 sec) 
Heartbeat CPU 0 instructions: 42000000 cycles: 118852827 heartbeat IPC: 0.248149 cumulative IPC: 0.277687 (Simulation time: 0 hr 20 min 38 sec) 
Heartbeat CPU 0 instructions: 43000000 cycles: 122261154 heartbeat IPC: 0.293399 cumulative IPC: 0.278139 (Simulation time: 0 hr 21 min 7 sec) 
Heartbeat CPU 0 instructions: 44000000 cycles: 125576164 heartbeat IPC: 0.301658 cumulative IPC: 0.278778 (Simulation time: 0 hr 21 min 39 sec) 
Heartbeat CPU 0 instructions: 45000001 cycles: 129030906 heartbeat IPC: 0.289457 cumulative IPC: 0.279072 (Simulation time: 0 hr 22 min 7 sec) 
Heartbeat CPU 0 instructions: 46000003 cycles: 132264361 heartbeat IPC: 0.309267 cumulative IPC: 0.279831 (Simulation time: 0 hr 22 min 34 sec) 
Heartbeat CPU 0 instructions: 47000002 cycles: 135532293 heartbeat IPC: 0.306004 cumulative IPC: 0.280479 (Simulation time: 0 hr 23 min 6 sec) 
Heartbeat CPU 0 instructions: 48000000 cycles: 138850942 heartbeat IPC: 0.301327 cumulative IPC: 0.280991 (Simulation time: 0 hr 23 min 42 sec) 
Heartbeat CPU 0 instructions: 49000003 cycles: 142346184 heartbeat IPC: 0.286104 cumulative IPC: 0.28112 (Simulation time: 0 hr 24 min 12 sec) 
Heartbeat CPU 0 instructions: 50000000 cycles: 145682250 heartbeat IPC: 0.299753 cumulative IPC: 0.281557 (Simulation time: 0 hr 24 min 41 sec) 
Heartbeat CPU 0 instructions: 51000001 cycles: 149833361 heartbeat IPC: 0.2409 cumulative IPC: 0.280403 (Simulation time: 0 hr 25 min 9 sec) 
Heartbeat CPU 0 instructions: 52000000 cycles: 154512906 heartbeat IPC: 0.213696 cumulative IPC: 0.278334 (Simulation time: 0 hr 25 min 40 sec) 
Heartbeat CPU 0 instructions: 53000000 cycles: 157560938 heartbeat IPC: 0.328081 cumulative IPC: 0.279319 (Simulation time: 0 hr 26 min 9 sec) 
Heartbeat CPU 0 instructions: 54000002 cycles: 160511359 heartbeat IPC: 0.338935 cumulative IPC: 0.28044 (Simulation time: 0 hr 26 min 39 sec) 
Heartbeat CPU 0 instructions: 55000002 cycles: 163384023 heartbeat IPC: 0.348109 cumulative IPC: 0.281657 (Simulation time: 0 hr 27 min 7 sec) 
Heartbeat CPU 0 instructions: 56000000 cycles: 166276328 heartbeat IPC: 0.345744 cumulative IPC: 0.282797 (Simulation time: 0 hr 27 min 38 sec) 
Heartbeat CPU 0 instructions: 57000000 cycles: 168981931 heartbeat IPC: 0.369603 cumulative IPC: 0.284217 (Simulation time: 0 hr 28 min 5 sec) 
Heartbeat CPU 0 instructions: 58000001 cycles: 171958353 heartbeat IPC: 0.335974 cumulative IPC: 0.285132 (Simulation time: 0 hr 28 min 35 sec) 
Heartbeat CPU 0 instructions: 59000000 cycles: 175028996 heartbeat IPC: 0.325664 cumulative IPC: 0.285858 (Simulation time: 0 hr 29 min 5 sec) 
Heartbeat CPU 0 instructions: 60000000 cycles: 177631433 heartbeat IPC: 0.384255 cumulative IPC: 0.28733 (Simulation time: 0 hr 29 min 35 sec) 
Heartbeat CPU 0 instructions: 61000000 cycles: 180171604 heartbeat IPC: 0.393674 cumulative IPC: 0.28886 (Simulation time: 0 hr 30 min 4 sec) 
Heartbeat CPU 0 instructions: 62000003 cycles: 182707019 heartbeat IPC: 0.394414 cumulative IPC: 0.290354 (Simulation time: 0 hr 30 min 31 sec) 
Heartbeat CPU 0 instructions: 63000000 cycles: 185366480 heartbeat IPC: 0.376015 cumulative IPC: 0.291607 (Simulation time: 0 hr 30 min 59 sec) 
Heartbeat CPU 0 instructions: 64000000 cycles: 187960254 heartbeat IPC: 0.385539 cumulative IPC: 0.292929 (Simulation time: 0 hr 31 min 29 sec) 
Heartbeat CPU 0 instructions: 65000000 cycles: 190462301 heartbeat IPC: 0.399673 cumulative IPC: 0.294359 (Simulation time: 0 hr 31 min 56 sec) 
Heartbeat CPU 0 instructions: 66000000 cycles: 193020531 heartbeat IPC: 0.390895 cumulative IPC: 0.295662 (Simulation time: 0 hr 32 min 24 sec) 
Heartbeat CPU 0 instructions: 67000000 cycles: 195582093 heartbeat IPC: 0.390387 cumulative IPC: 0.296926 (Simulation time: 0 hr 32 min 55 sec) 
Heartbeat CPU 0 instructions: 68000000 cycles: 198114773 heartbeat IPC: 0.394839 cumulative IPC: 0.298201 (Simulation time: 0 hr 33 min 27 sec) 
Heartbeat CPU 0 instructions: 69000000 cycles: 200764544 heartbeat IPC: 0.377391 cumulative IPC: 0.299266 (Simulation time: 0 hr 33 min 56 sec) 
Heartbeat CPU 0 instructions: 70000000 cycles: 203335769 heartbeat IPC: 0.38892 cumulative IPC: 0.30042 (Simulation time: 0 hr 34 min 26 sec) 
Heartbeat CPU 0 instructions: 71000001 cycles: 206109416 heartbeat IPC: 0.360537 cumulative IPC: 0.301243 (Simulation time: 0 hr 34 min 52 sec) 
Heartbeat CPU 0 instructions: 72000000 cycles: 208859382 heartbeat IPC: 0.36364 cumulative IPC: 0.302079 (Simulation time: 0 hr 35 min 22 sec) 
Heartbeat CPU 0 instructions: 73000001 cycles: 211542581 heartbeat IPC: 0.37269 cumulative IPC: 0.302991 (Simulation time: 0 hr 35 min 54 sec) 
Heartbeat CPU 0 instructions: 74000002 cycles: 213857951 heartbeat IPC: 0.431897 cumulative IPC: 0.30441 (Simulation time: 0 hr 36 min 23 sec) 
Heartbeat CPU 0 instructions: 75000002 cycles: 216470675 heartbeat IPC: 0.382742 cumulative IPC: 0.305372 (Simulation time: 0 hr 36 min 51 sec) 
Heartbeat CPU 0 instructions: 76000000 cycles: 219159807 heartbeat IPC: 0.371866 cumulative IPC: 0.306201 (Simulation time: 0 hr 37 min 23 sec) 
Heartbeat CPU 0 instructions: 77000000 cycles: 222604237 heartbeat IPC: 0.290324 cumulative IPC: 0.305952 (Simulation time: 0 hr 37 min 52 sec) 
Heartbeat CPU 0 instructions: 78000003 cycles: 226026571 heartbeat IPC: 0.292199 cumulative IPC: 0.30574 (Simulation time: 0 hr 38 min 22 sec) 
Heartbeat CPU 0 instructions: 79000001 cycles: 228704181 heartbeat IPC: 0.373467 cumulative IPC: 0.306546 (Simulation time: 0 hr 38 min 54 sec) 
Heartbeat CPU 0 instructions: 80000000 cycles: 231765945 heartbeat IPC: 0.326609 cumulative IPC: 0.306815 (Simulation time: 0 hr 39 min 24 sec) 
Heartbeat CPU 0 instructions: 81000001 cycles: 234686022 heartbeat IPC: 0.342457 cumulative IPC: 0.307265 (Simulation time: 0 hr 39 min 56 sec) 
Heartbeat CPU 0 instructions: 82000002 cycles: 237329649 heartbeat IPC: 0.378269 cumulative IPC: 0.308068 (Simulation time: 0 hr 40 min 25 sec) 
Heartbeat CPU 0 instructions: 83000002 cycles: 239990616 heartbeat IPC: 0.375803 cumulative IPC: 0.308831 (Simulation time: 0 hr 40 min 55 sec) 
Heartbeat CPU 0 instructions: 84000000 cycles: 242712279 heartbeat IPC: 0.367422 cumulative IPC: 0.309498 (Simulation time: 0 hr 41 min 22 sec) 
Heartbeat CPU 0 instructions: 85000000 cycles: 245310715 heartbeat IPC: 0.384847 cumulative IPC: 0.310308 (Simulation time: 0 hr 41 min 50 sec) 
Heartbeat CPU 0 instructions: 86000001 cycles: 247917060 heartbeat IPC: 0.383679 cumulative IPC: 0.311091 (Simulation time: 0 hr 42 min 18 sec) 
Heartbeat CPU 0 instructions: 87000000 cycles: 250416924 heartbeat IPC: 0.400021 cumulative IPC: 0.311991 (Simulation time: 0 hr 42 min 47 sec) 
Heartbeat CPU 0 instructions: 88000000 cycles: 253115621 heartbeat IPC: 0.370549 cumulative IPC: 0.312625 (Simulation time: 0 hr 43 min 16 sec) 
Heartbeat CPU 0 instructions: 89000000 cycles: 255795455 heartbeat IPC: 0.373157 cumulative IPC: 0.313268 (Simulation time: 0 hr 43 min 45 sec) 
Heartbeat CPU 0 instructions: 90000001 cycles: 258368299 heartbeat IPC: 0.388675 cumulative IPC: 0.31403 (Simulation time: 0 hr 44 min 16 sec) 
Heartbeat CPU 0 instructions: 91000000 cycles: 260951522 heartbeat IPC: 0.387113 cumulative IPC: 0.314763 (Simulation time: 0 hr 44 min 44 sec) 
Heartbeat CPU 0 instructions: 92000000 cycles: 264328972 heartbeat IPC: 0.296081 cumulative IPC: 0.314521 (Simulation time: 0 hr 45 min 11 sec) 
Heartbeat CPU 0 instructions: 93000000 cycles: 267402370 heartbeat IPC: 0.325373 cumulative IPC: 0.314648 (Simulation time: 0 hr 45 min 41 sec) 
Heartbeat CPU 0 instructions: 94000003 cycles: 270206329 heartbeat IPC: 0.35664 cumulative IPC: 0.315089 (Simulation time: 0 hr 46 min 11 sec) 
Heartbeat CPU 0 instructions: 95000000 cycles: 272726238 heartbeat IPC: 0.396839 cumulative IPC: 0.315855 (Simulation time: 0 hr 46 min 42 sec) 
Heartbeat CPU 0 instructions: 96000000 cycles: 275297000 heartbeat IPC: 0.38899 cumulative IPC: 0.316547 (Simulation time: 0 hr 47 min 15 sec) 
Heartbeat CPU 0 instructions: 97000000 cycles: 277807180 heartbeat IPC: 0.398378 cumulative IPC: 0.317296 (Simulation time: 0 hr 47 min 43 sec) 
Heartbeat CPU 0 instructions: 98000000 cycles: 280419474 heartbeat IPC: 0.382805 cumulative IPC: 0.317914 (Simulation time: 0 hr 48 min 10 sec) 
Heartbeat CPU 0 instructions: 99000002 cycles: 283536683 heartbeat IPC: 0.3208 cumulative IPC: 0.317946 (Simulation time: 0 hr 48 min 40 sec) 
Heartbeat CPU 0 instructions: 100000000 cycles: 286519206 heartbeat IPC: 0.335286 cumulative IPC: 0.318129 (Simulation time: 0 hr 49 min 10 sec) 
Heartbeat CPU 0 instructions: 101000000 cycles: 289845057 heartbeat IPC: 0.300675 cumulative IPC: 0.317926 (Simulation time: 0 hr 49 min 38 sec) 
Heartbeat CPU 0 instructions: 102000001 cycles: 293742118 heartbeat IPC: 0.256604 cumulative IPC: 0.317103 (Simulation time: 0 hr 50 min 5 sec) 
Heartbeat CPU 0 instructions: 103000002 cycles: 297618254 heartbeat IPC: 0.257989 cumulative IPC: 0.316323 (Simulation time: 0 hr 50 min 32 sec) 
Heartbeat CPU 0 instructions: 104000000 cycles: 301004891 heartbeat IPC: 0.295278 cumulative IPC: 0.316084 (Simulation time: 0 hr 51 min 2 sec) 
Heartbeat CPU 0 instructions: 105000001 cycles: 303988469 heartbeat IPC: 0.335168 cumulative IPC: 0.316273 (Simulation time: 0 hr 51 min 30 sec) 
Heartbeat CPU 0 instructions: 106000001 cycles: 306755631 heartbeat IPC: 0.361381 cumulative IPC: 0.316685 (Simulation time: 0 hr 51 min 58 sec) 
Heartbeat CPU 0 instructions: 107000002 cycles: 309805598 heartbeat IPC: 0.327873 cumulative IPC: 0.316796 (Simulation time: 0 hr 52 min 26 sec) 
Heartbeat CPU 0 instructions: 108000000 cycles: 313009870 heartbeat IPC: 0.312083 cumulative IPC: 0.316748 (Simulation time: 0 hr 52 min 55 sec) 
Heartbeat CPU 0 instructions: 109000003 cycles: 316377094 heartbeat IPC: 0.296981 cumulative IPC: 0.316535 (Simulation time: 0 hr 53 min 22 sec) 
Heartbeat CPU 0 instructions: 110000003 cycles: 319583180 heartbeat IPC: 0.311907 cumulative IPC: 0.316488 (Simulation time: 0 hr 53 min 48 sec) 
Finished CPU 0 instructions: 100000000 cycles: 315967853 cummulative IPC: 0.316488 (Simulation time: 0 hr 53 min 48 sec) 

ChampSim completed all CPUs

Region of Interest Statistics

CPU 0 cummulative IPC: 0.316488 instructions: 100000000 cycles: 315967853
LLC TOTAL     ACCESS:    5226746  HIT:    4426043  MISS:     800703
LLC LOAD      ACCESS:    2121342  HIT:    1850083  MISS:     271259
LLC RFO       ACCESS:      29853  HIT:      28498  MISS:       1355
LLC PREFETCH  ACCESS:    2266379  HIT:    1782100  MISS:     484279
LLC WRITEBACK ACCESS:     809172  HIT:     765362  MISS:      43810
Insertion Distribution: 
	LOAD 163245 0 96254 49239 
	RFO 1 0 1118 358 
	PREF 0 46688 177782 300553 
	WRITEBACK 0 0 0 49058 
Total Prefetch Downgrades: 57491
