
*** ChampSim Multicore Out-of-Order Simulator ***

Warmup Instructions: 10000000
Simulation Instructions: 100000000
Configuration: 2
Number of CPUs: 1
LLC sets: 2048
LLC ways: 16
Off-chip DRAM Channels: 1 Width: 64-bit Data Rate: 1600 MT/s

CPU 0 runs /datasets/cs240c-wi22-a00-public/data/Assignment2-gz/cactusADM_734B.trace.gz
CPU 0 L1D next line prefetcher
CPU 0 L2C IP-based stride prefetcher
Initialize SRRIP state
Heartbeat CPU 0 instructions: 1000003 cycles: 592726 heartbeat IPC: 1.68713 cumulative IPC: 1.68713 (Simulation time: 0 hr 0 min 38 sec) 
Heartbeat CPU 0 instructions: 2000001 cycles: 1185927 heartbeat IPC: 1.68577 cumulative IPC: 1.68645 (Simulation time: 0 hr 1 min 14 sec) 
Heartbeat CPU 0 instructions: 3000003 cycles: 1778979 heartbeat IPC: 1.6862 cumulative IPC: 1.68636 (Simulation time: 0 hr 1 min 49 sec) 
Heartbeat CPU 0 instructions: 4000000 cycles: 2371929 heartbeat IPC: 1.68648 cumulative IPC: 1.68639 (Simulation time: 0 hr 2 min 26 sec) 
Heartbeat CPU 0 instructions: 5000000 cycles: 2965279 heartbeat IPC: 1.68535 cumulative IPC: 1.68618 (Simulation time: 0 hr 3 min 1 sec) 
Heartbeat CPU 0 instructions: 6000002 cycles: 3558551 heartbeat IPC: 1.68557 cumulative IPC: 1.68608 (Simulation time: 0 hr 3 min 35 sec) 
Heartbeat CPU 0 instructions: 7000000 cycles: 4151394 heartbeat IPC: 1.68678 cumulative IPC: 1.68618 (Simulation time: 0 hr 4 min 11 sec) 
Heartbeat CPU 0 instructions: 8000000 cycles: 4744343 heartbeat IPC: 1.68649 cumulative IPC: 1.68622 (Simulation time: 0 hr 4 min 47 sec) 
Heartbeat CPU 0 instructions: 9000001 cycles: 5337493 heartbeat IPC: 1.68592 cumulative IPC: 1.68619 (Simulation time: 0 hr 5 min 24 sec) 
Heartbeat CPU 0 instructions: 10000003 cycles: 5958967 heartbeat IPC: 1.60908 cumulative IPC: 1.67814 (Simulation time: 0 hr 5 min 59 sec) 

Warmup complete CPU 0 instructions: 10000003 cycles: 5958967 (Simulation time: 0 hr 5 min 59 sec) 

Heartbeat CPU 0 instructions: 11000002 cycles: 12586331 heartbeat IPC: 0.150889 cumulative IPC: 0.150889 (Simulation time: 0 hr 6 min 48 sec) 
Heartbeat CPU 0 instructions: 12000000 cycles: 14328822 heartbeat IPC: 0.57389 cumulative IPC: 0.238952 (Simulation time: 0 hr 7 min 34 sec) 
Heartbeat CPU 0 instructions: 13000002 cycles: 16016582 heartbeat IPC: 0.592502 cumulative IPC: 0.298281 (Simulation time: 0 hr 8 min 18 sec) 
Heartbeat CPU 0 instructions: 14000000 cycles: 17702623 heartbeat IPC: 0.593104 cumulative IPC: 0.340609 (Simulation time: 0 hr 8 min 57 sec) 
Heartbeat CPU 0 instructions: 15000003 cycles: 19442205 heartbeat IPC: 0.574852 cumulative IPC: 0.370831 (Simulation time: 0 hr 9 min 40 sec) 
Heartbeat CPU 0 instructions: 16000000 cycles: 21184936 heartbeat IPC: 0.57381 cumulative IPC: 0.394063 (Simulation time: 0 hr 10 min 19 sec) 
Heartbeat CPU 0 instructions: 17000002 cycles: 22919537 heartbeat IPC: 0.576503 cumulative IPC: 0.412722 (Simulation time: 0 hr 10 min 59 sec) 
Heartbeat CPU 0 instructions: 18000001 cycles: 24577718 heartbeat IPC: 0.60307 cumulative IPC: 0.429674 (Simulation time: 0 hr 11 min 41 sec) 
Heartbeat CPU 0 instructions: 19000000 cycles: 26295060 heartbeat IPC: 0.582295 cumulative IPC: 0.442563 (Simulation time: 0 hr 12 min 21 sec) 
Heartbeat CPU 0 instructions: 20000000 cycles: 28038291 heartbeat IPC: 0.573647 cumulative IPC: 0.452912 (Simulation time: 0 hr 13 min 0 sec) 
Heartbeat CPU 0 instructions: 21000002 cycles: 29782751 heartbeat IPC: 0.573244 cumulative IPC: 0.461723 (Simulation time: 0 hr 13 min 42 sec) 
Heartbeat CPU 0 instructions: 22000000 cycles: 31492311 heartbeat IPC: 0.584945 cumulative IPC: 0.469974 (Simulation time: 0 hr 14 min 25 sec) 
Heartbeat CPU 0 instructions: 23000001 cycles: 33156739 heartbeat IPC: 0.600808 cumulative IPC: 0.47798 (Simulation time: 0 hr 15 min 4 sec) 
Heartbeat CPU 0 instructions: 24000000 cycles: 40777333 heartbeat IPC: 0.131223 cumulative IPC: 0.402087 (Simulation time: 0 hr 15 min 54 sec) 
Heartbeat CPU 0 instructions: 25000000 cycles: 42517852 heartbeat IPC: 0.574541 cumulative IPC: 0.410297 (Simulation time: 0 hr 16 min 34 sec) 
Heartbeat CPU 0 instructions: 26000002 cycles: 44250993 heartbeat IPC: 0.576988 cumulative IPC: 0.417842 (Simulation time: 0 hr 17 min 13 sec) 
Heartbeat CPU 0 instructions: 27000002 cycles: 45912797 heartbeat IPC: 0.601756 cumulative IPC: 0.425491 (Simulation time: 0 hr 17 min 51 sec) 
Heartbeat CPU 0 instructions: 28000000 cycles: 47638122 heartbeat IPC: 0.5796 cumulative IPC: 0.43187 (Simulation time: 0 hr 18 min 31 sec) 
Heartbeat CPU 0 instructions: 29000001 cycles: 49397023 heartbeat IPC: 0.568537 cumulative IPC: 0.437404 (Simulation time: 0 hr 19 min 9 sec) 
Heartbeat CPU 0 instructions: 30000001 cycles: 51138992 heartbeat IPC: 0.574063 cumulative IPC: 0.442673 (Simulation time: 0 hr 19 min 49 sec) 
Heartbeat CPU 0 instructions: 31000003 cycles: 52852085 heartbeat IPC: 0.583741 cumulative IPC: 0.447827 (Simulation time: 0 hr 20 min 27 sec) 
Heartbeat CPU 0 instructions: 32000000 cycles: 54511660 heartbeat IPC: 0.602562 cumulative IPC: 0.453116 (Simulation time: 0 hr 21 min 9 sec) 
Heartbeat CPU 0 instructions: 33000000 cycles: 56247348 heartbeat IPC: 0.57614 cumulative IPC: 0.457362 (Simulation time: 0 hr 21 min 48 sec) 
Heartbeat CPU 0 instructions: 34000001 cycles: 57992518 heartbeat IPC: 0.573011 cumulative IPC: 0.461241 (Simulation time: 0 hr 22 min 27 sec) 
Heartbeat CPU 0 instructions: 35000000 cycles: 59730561 heartbeat IPC: 0.575359 cumulative IPC: 0.464929 (Simulation time: 0 hr 23 min 8 sec) 
Heartbeat CPU 0 instructions: 36000000 cycles: 61414045 heartbeat IPC: 0.594006 cumulative IPC: 0.468848 (Simulation time: 0 hr 23 min 46 sec) 
Heartbeat CPU 0 instructions: 37000003 cycles: 68988284 heartbeat IPC: 0.132027 cumulative IPC: 0.428372 (Simulation time: 0 hr 24 min 29 sec) 
Heartbeat CPU 0 instructions: 38000001 cycles: 70727261 heartbeat IPC: 0.57505 cumulative IPC: 0.43231 (Simulation time: 0 hr 25 min 6 sec) 
Heartbeat CPU 0 instructions: 39000001 cycles: 72467184 heartbeat IPC: 0.574738 cumulative IPC: 0.436036 (Simulation time: 0 hr 25 min 47 sec) 
Heartbeat CPU 0 instructions: 40000000 cycles: 74183834 heartbeat IPC: 0.582529 cumulative IPC: 0.439722 (Simulation time: 0 hr 26 min 25 sec) 
Heartbeat CPU 0 instructions: 41000001 cycles: 75838486 heartbeat IPC: 0.604357 cumulative IPC: 0.443621 (Simulation time: 0 hr 27 min 2 sec) 
Heartbeat CPU 0 instructions: 42000002 cycles: 77573889 heartbeat IPC: 0.576236 cumulative IPC: 0.446834 (Simulation time: 0 hr 27 min 40 sec) 
Heartbeat CPU 0 instructions: 43000000 cycles: 79315506 heartbeat IPC: 0.574178 cumulative IPC: 0.449858 (Simulation time: 0 hr 28 min 19 sec) 
Heartbeat CPU 0 instructions: 44000000 cycles: 81056178 heartbeat IPC: 0.574491 cumulative IPC: 0.452746 (Simulation time: 0 hr 28 min 57 sec) 
Heartbeat CPU 0 instructions: 45000000 cycles: 82741734 heartbeat IPC: 0.593276 cumulative IPC: 0.455831 (Simulation time: 0 hr 29 min 36 sec) 
Heartbeat CPU 0 instructions: 46000003 cycles: 84425668 heartbeat IPC: 0.593849 cumulative IPC: 0.458793 (Simulation time: 0 hr 30 min 14 sec) 
Heartbeat CPU 0 instructions: 47000001 cycles: 86164040 heartbeat IPC: 0.57525 cumulative IPC: 0.461317 (Simulation time: 0 hr 30 min 53 sec) 
Heartbeat CPU 0 instructions: 48000000 cycles: 87905578 heartbeat IPC: 0.574205 cumulative IPC: 0.463717 (Simulation time: 0 hr 31 min 31 sec) 
Heartbeat CPU 0 instructions: 49000000 cycles: 89642087 heartbeat IPC: 0.575868 cumulative IPC: 0.466044 (Simulation time: 0 hr 32 min 9 sec) 
Heartbeat CPU 0 instructions: 50000001 cycles: 97137547 heartbeat IPC: 0.133414 cumulative IPC: 0.4387 (Simulation time: 0 hr 32 min 54 sec) 
Heartbeat CPU 0 instructions: 51000000 cycles: 98866984 heartbeat IPC: 0.578222 cumulative IPC: 0.441297 (Simulation time: 0 hr 33 min 35 sec) 
Heartbeat CPU 0 instructions: 52000000 cycles: 100605945 heartbeat IPC: 0.575056 cumulative IPC: 0.443754 (Simulation time: 0 hr 34 min 14 sec) 
Heartbeat CPU 0 instructions: 53000003 cycles: 102345475 heartbeat IPC: 0.57487 cumulative IPC: 0.446121 (Simulation time: 0 hr 34 min 52 sec) 
Heartbeat CPU 0 instructions: 54000000 cycles: 104034364 heartbeat IPC: 0.592103 cumulative IPC: 0.448634 (Simulation time: 0 hr 35 min 29 sec) 
Heartbeat CPU 0 instructions: 55000001 cycles: 105712076 heartbeat IPC: 0.59605 cumulative IPC: 0.451114 (Simulation time: 0 hr 36 min 9 sec) 
Heartbeat CPU 0 instructions: 56000000 cycles: 107465504 heartbeat IPC: 0.570311 cumulative IPC: 0.453173 (Simulation time: 0 hr 36 min 48 sec) 
Heartbeat CPU 0 instructions: 57000000 cycles: 109216812 heartbeat IPC: 0.571002 cumulative IPC: 0.455171 (Simulation time: 0 hr 37 min 26 sec) 
Heartbeat CPU 0 instructions: 58000001 cycles: 110953024 heartbeat IPC: 0.575967 cumulative IPC: 0.457169 (Simulation time: 0 hr 38 min 2 sec) 
Heartbeat CPU 0 instructions: 59000000 cycles: 112613431 heartbeat IPC: 0.602261 cumulative IPC: 0.459428 (Simulation time: 0 hr 38 min 39 sec) 
Heartbeat CPU 0 instructions: 60000000 cycles: 114322214 heartbeat IPC: 0.585212 cumulative IPC: 0.461411 (Simulation time: 0 hr 39 min 16 sec) 
Heartbeat CPU 0 instructions: 61000002 cycles: 116064571 heartbeat IPC: 0.573936 cumulative IPC: 0.463192 (Simulation time: 0 hr 39 min 54 sec) 
Heartbeat CPU 0 instructions: 62000002 cycles: 117807033 heartbeat IPC: 0.573901 cumulative IPC: 0.464916 (Simulation time: 0 hr 40 min 33 sec) 
Heartbeat CPU 0 instructions: 63000002 cycles: 125214036 heartbeat IPC: 0.135007 cumulative IPC: 0.444426 (Simulation time: 0 hr 41 min 20 sec) 
Heartbeat CPU 0 instructions: 64000000 cycles: 127169874 heartbeat IPC: 0.511289 cumulative IPC: 0.445504 (Simulation time: 0 hr 42 min 1 sec) 
Heartbeat CPU 0 instructions: 65000003 cycles: 128906640 heartbeat IPC: 0.575785 cumulative IPC: 0.447345 (Simulation time: 0 hr 42 min 44 sec) 
Heartbeat CPU 0 instructions: 66000001 cycles: 130647912 heartbeat IPC: 0.574292 cumulative IPC: 0.449118 (Simulation time: 0 hr 43 min 28 sec) 
Heartbeat CPU 0 instructions: 67000000 cycles: 132385149 heartbeat IPC: 0.575626 cumulative IPC: 0.450856 (Simulation time: 0 hr 44 min 6 sec) 
Heartbeat CPU 0 instructions: 68000000 cycles: 134050347 heartbeat IPC: 0.600529 cumulative IPC: 0.452802 (Simulation time: 0 hr 44 min 46 sec) 
Heartbeat CPU 0 instructions: 69000000 cycles: 135753431 heartbeat IPC: 0.58717 cumulative IPC: 0.454565 (Simulation time: 0 hr 45 min 26 sec) 
Heartbeat CPU 0 instructions: 70000001 cycles: 137497181 heartbeat IPC: 0.573477 cumulative IPC: 0.456141 (Simulation time: 0 hr 46 min 4 sec) 
Heartbeat CPU 0 instructions: 71000001 cycles: 139241834 heartbeat IPC: 0.57318 cumulative IPC: 0.457673 (Simulation time: 0 hr 46 min 45 sec) 
Heartbeat CPU 0 instructions: 72000000 cycles: 140965191 heartbeat IPC: 0.580262 cumulative IPC: 0.459238 (Simulation time: 0 hr 47 min 21 sec) 
Heartbeat CPU 0 instructions: 73000003 cycles: 142617521 heartbeat IPC: 0.605208 cumulative IPC: 0.461003 (Simulation time: 0 hr 48 min 0 sec) 
Heartbeat CPU 0 instructions: 74000002 cycles: 144353126 heartbeat IPC: 0.576167 cumulative IPC: 0.462447 (Simulation time: 0 hr 48 min 41 sec) 
Heartbeat CPU 0 instructions: 75000002 cycles: 146096348 heartbeat IPC: 0.57365 cumulative IPC: 0.463831 (Simulation time: 0 hr 49 min 21 sec) 
Heartbeat CPU 0 instructions: 76000000 cycles: 152304619 heartbeat IPC: 0.161075 cumulative IPC: 0.450987 (Simulation time: 0 hr 50 min 5 sec) 
Heartbeat CPU 0 instructions: 77000000 cycles: 155502263 heartbeat IPC: 0.31273 cumulative IPC: 0.448031 (Simulation time: 0 hr 50 min 44 sec) 
Heartbeat CPU 0 instructions: 78000002 cycles: 157200153 heartbeat IPC: 0.588968 cumulative IPC: 0.449613 (Simulation time: 0 hr 51 min 20 sec) 
Heartbeat CPU 0 instructions: 79000002 cycles: 158942628 heartbeat IPC: 0.573896 cumulative IPC: 0.451029 (Simulation time: 0 hr 52 min 4 sec) 
Heartbeat CPU 0 instructions: 80000000 cycles: 160682159 heartbeat IPC: 0.574866 cumulative IPC: 0.452421 (Simulation time: 0 hr 52 min 50 sec) 
Heartbeat CPU 0 instructions: 81000000 cycles: 162410939 heartbeat IPC: 0.578443 cumulative IPC: 0.453813 (Simulation time: 0 hr 53 min 25 sec) 
Heartbeat CPU 0 instructions: 82000003 cycles: 164058079 heartbeat IPC: 0.607115 cumulative IPC: 0.455411 (Simulation time: 0 hr 53 min 59 sec) 
Heartbeat CPU 0 instructions: 83000003 cycles: 165790000 heartbeat IPC: 0.577394 cumulative IPC: 0.456732 (Simulation time: 0 hr 54 min 31 sec) 
Heartbeat CPU 0 instructions: 84000000 cycles: 167531635 heartbeat IPC: 0.574171 cumulative IPC: 0.457998 (Simulation time: 0 hr 55 min 3 sec) 
Heartbeat CPU 0 instructions: 85000003 cycles: 169274895 heartbeat IPC: 0.57364 cumulative IPC: 0.459233 (Simulation time: 0 hr 55 min 34 sec) 
Heartbeat CPU 0 instructions: 86000000 cycles: 170972060 heartbeat IPC: 0.589216 cumulative IPC: 0.46057 (Simulation time: 0 hr 56 min 5 sec) 
Heartbeat CPU 0 instructions: 87000000 cycles: 172648301 heartbeat IPC: 0.596573 cumulative IPC: 0.461937 (Simulation time: 0 hr 56 min 34 sec) 
Heartbeat CPU 0 instructions: 88000000 cycles: 174418607 heartbeat IPC: 0.564874 cumulative IPC: 0.463019 (Simulation time: 0 hr 57 min 2 sec) 
Heartbeat CPU 0 instructions: 89000002 cycles: 179547726 heartbeat IPC: 0.194966 cumulative IPC: 0.455099 (Simulation time: 0 hr 57 min 33 sec) 
Heartbeat CPU 0 instructions: 90000002 cycles: 183833408 heartbeat IPC: 0.233335 cumulative IPC: 0.449755 (Simulation time: 0 hr 58 min 1 sec) 
Heartbeat CPU 0 instructions: 91000003 cycles: 185483184 heartbeat IPC: 0.606143 cumulative IPC: 0.451193 (Simulation time: 0 hr 58 min 24 sec) 
Heartbeat CPU 0 instructions: 92000000 cycles: 187212826 heartbeat IPC: 0.578153 cumulative IPC: 0.452404 (Simulation time: 0 hr 58 min 48 sec) 
Heartbeat CPU 0 instructions: 93000000 cycles: 188954549 heartbeat IPC: 0.574144 cumulative IPC: 0.453563 (Simulation time: 0 hr 59 min 13 sec) 
Heartbeat CPU 0 instructions: 94000003 cycles: 190699300 heartbeat IPC: 0.573149 cumulative IPC: 0.454692 (Simulation time: 0 hr 59 min 35 sec) 
Heartbeat CPU 0 instructions: 95000000 cycles: 192401820 heartbeat IPC: 0.587363 cumulative IPC: 0.455904 (Simulation time: 0 hr 59 min 56 sec) 
Heartbeat CPU 0 instructions: 96000000 cycles: 194075705 heartbeat IPC: 0.597413 cumulative IPC: 0.457163 (Simulation time: 1 hr 0 min 17 sec) 
Heartbeat CPU 0 instructions: 97000001 cycles: 195814725 heartbeat IPC: 0.575037 cumulative IPC: 0.458243 (Simulation time: 1 hr 0 min 36 sec) 
Heartbeat CPU 0 instructions: 98000000 cycles: 197559182 heartbeat IPC: 0.573244 cumulative IPC: 0.45929 (Simulation time: 1 hr 0 min 56 sec) 
Heartbeat CPU 0 instructions: 99000001 cycles: 199301961 heartbeat IPC: 0.573797 cumulative IPC: 0.460322 (Simulation time: 1 hr 1 min 15 sec) 
Heartbeat CPU 0 instructions: 100000000 cycles: 200974640 heartbeat IPC: 0.597843 cumulative IPC: 0.461501 (Simulation time: 1 hr 1 min 35 sec) 
Heartbeat CPU 0 instructions: 101000000 cycles: 202679461 heartbeat IPC: 0.586572 cumulative IPC: 0.462585 (Simulation time: 1 hr 1 min 52 sec) 
Heartbeat CPU 0 instructions: 102000002 cycles: 206710462 heartbeat IPC: 0.248078 cumulative IPC: 0.458278 (Simulation time: 1 hr 2 min 10 sec) 
Heartbeat CPU 0 instructions: 103000000 cycles: 212094035 heartbeat IPC: 0.18575 cumulative IPC: 0.45116 (Simulation time: 1 hr 2 min 28 sec) 
Heartbeat CPU 0 instructions: 104000000 cycles: 213800014 heartbeat IPC: 0.586174 cumulative IPC: 0.452269 (Simulation time: 1 hr 2 min 43 sec) 
Heartbeat CPU 0 instructions: 105000000 cycles: 215465426 heartbeat IPC: 0.600452 cumulative IPC: 0.453447 (Simulation time: 1 hr 2 min 59 sec) 
Heartbeat CPU 0 instructions: 106000002 cycles: 217200862 heartbeat IPC: 0.576225 cumulative IPC: 0.454455 (Simulation time: 1 hr 3 min 13 sec) 
Heartbeat CPU 0 instructions: 107000001 cycles: 218944264 heartbeat IPC: 0.573591 cumulative IPC: 0.45543 (Simulation time: 1 hr 3 min 28 sec) 
Heartbeat CPU 0 instructions: 108000000 cycles: 220682600 heartbeat IPC: 0.575262 cumulative IPC: 0.456401 (Simulation time: 1 hr 3 min 43 sec) 
Heartbeat CPU 0 instructions: 109000001 cycles: 222358594 heartbeat IPC: 0.596661 cumulative IPC: 0.457487 (Simulation time: 1 hr 3 min 56 sec) 
Heartbeat CPU 0 instructions: 110000003 cycles: 224055249 heartbeat IPC: 0.589396 cumulative IPC: 0.458513 (Simulation time: 1 hr 4 min 9 sec) 
Finished CPU 0 instructions: 100000000 cycles: 218096282 cummulative IPC: 0.458513 (Simulation time: 1 hr 4 min 9 sec) 

ChampSim completed all CPUs

Region of Interest Statistics

CPU 0 cummulative IPC: 0.458513 instructions: 100000000 cycles: 218096282
LLC TOTAL     ACCESS:    1166726  HIT:     197658  MISS:     969068
LLC LOAD      ACCESS:      25110  HIT:       1660  MISS:      23450
LLC RFO       ACCESS:     264086  HIT:      14596  MISS:     249490
LLC PREFETCH  ACCESS:     611422  HIT:      80859  MISS:     530563
LLC WRITEBACK ACCESS:     266108  HIT:     100543  MISS:     165565
Insertion Distribution: 
	LOAD 0 0 10571 14070 
	RFO 53175 0 27202 181597 
	PREF 0 11159 39223 530233 
	WRITEBACK 0 0 0 169778 
Total Prefetch Downgrades: 10530
