
*** ChampSim Multicore Out-of-Order Simulator ***

Warmup Instructions: 10000000
Simulation Instructions: 100000000
Configuration: 2
Number of CPUs: 1
LLC sets: 2048
LLC ways: 16
Off-chip DRAM Channels: 1 Width: 64-bit Data Rate: 1600 MT/s

CPU 0 runs /datasets/cs240c-wi22-a00-public/data/Assignment2-gz/sphinx3_2520B.trace.gz
CPU 0 L1D next line prefetcher
CPU 0 L2C IP-based stride prefetcher
Initialize SRRIP state
Heartbeat CPU 0 instructions: 1000003 cycles: 338965 heartbeat IPC: 2.95017 cumulative IPC: 2.95017 (Simulation time: 0 hr 0 min 31 sec) 
Heartbeat CPU 0 instructions: 2000000 cycles: 737235 heartbeat IPC: 2.51085 cumulative IPC: 2.71284 (Simulation time: 0 hr 0 min 59 sec) 
Heartbeat CPU 0 instructions: 3000003 cycles: 1185228 heartbeat IPC: 2.23218 cumulative IPC: 2.53116 (Simulation time: 0 hr 1 min 27 sec) 
Heartbeat CPU 0 instructions: 4000000 cycles: 1524260 heartbeat IPC: 2.94957 cumulative IPC: 2.62422 (Simulation time: 0 hr 1 min 54 sec) 
Heartbeat CPU 0 instructions: 5000001 cycles: 1902517 heartbeat IPC: 2.64371 cumulative IPC: 2.6281 (Simulation time: 0 hr 2 min 22 sec) 
Heartbeat CPU 0 instructions: 6000001 cycles: 2368004 heartbeat IPC: 2.14829 cumulative IPC: 2.53378 (Simulation time: 0 hr 2 min 50 sec) 
Heartbeat CPU 0 instructions: 7000001 cycles: 2706944 heartbeat IPC: 2.95037 cumulative IPC: 2.58594 (Simulation time: 0 hr 3 min 14 sec) 
Heartbeat CPU 0 instructions: 8000000 cycles: 3055954 heartbeat IPC: 2.86524 cumulative IPC: 2.61784 (Simulation time: 0 hr 3 min 41 sec) 
Heartbeat CPU 0 instructions: 9000000 cycles: 3509435 heartbeat IPC: 2.20516 cumulative IPC: 2.56452 (Simulation time: 0 hr 4 min 10 sec) 
Heartbeat CPU 0 instructions: 10000000 cycles: 3859593 heartbeat IPC: 2.85585 cumulative IPC: 2.59095 (Simulation time: 0 hr 4 min 34 sec) 

Warmup complete CPU 0 instructions: 10000004 cycles: 3859594 (Simulation time: 0 hr 4 min 34 sec) 

Heartbeat CPU 0 instructions: 11000001 cycles: 4740863 heartbeat IPC: 1.13473 cumulative IPC: 1.13472 (Simulation time: 0 hr 5 min 4 sec) 
Heartbeat CPU 0 instructions: 12000000 cycles: 5671813 heartbeat IPC: 1.07417 cumulative IPC: 1.10362 (Simulation time: 0 hr 5 min 34 sec) 
Heartbeat CPU 0 instructions: 13000002 cycles: 6542198 heartbeat IPC: 1.14892 cumulative IPC: 1.11832 (Simulation time: 0 hr 6 min 3 sec) 
Heartbeat CPU 0 instructions: 14000002 cycles: 7395634 heartbeat IPC: 1.17173 cumulative IPC: 1.13121 (Simulation time: 0 hr 6 min 32 sec) 
Heartbeat CPU 0 instructions: 15000003 cycles: 8342344 heartbeat IPC: 1.05629 cumulative IPC: 1.11539 (Simulation time: 0 hr 7 min 1 sec) 
Heartbeat CPU 0 instructions: 16000000 cycles: 9198468 heartbeat IPC: 1.16805 cumulative IPC: 1.12383 (Simulation time: 0 hr 7 min 35 sec) 
Heartbeat CPU 0 instructions: 17000000 cycles: 10034901 heartbeat IPC: 1.19555 cumulative IPC: 1.13355 (Simulation time: 0 hr 8 min 3 sec) 
Heartbeat CPU 0 instructions: 18000002 cycles: 10964488 heartbeat IPC: 1.07575 cumulative IPC: 1.12598 (Simulation time: 0 hr 8 min 30 sec) 
Heartbeat CPU 0 instructions: 19000001 cycles: 11816027 heartbeat IPC: 1.17434 cumulative IPC: 1.13116 (Simulation time: 0 hr 9 min 1 sec) 
Heartbeat CPU 0 instructions: 20000000 cycles: 12647644 heartbeat IPC: 1.20248 cumulative IPC: 1.13791 (Simulation time: 0 hr 9 min 30 sec) 
Heartbeat CPU 0 instructions: 21000001 cycles: 13856837 heartbeat IPC: 0.826999 cumulative IPC: 1.1003 (Simulation time: 0 hr 10 min 1 sec) 
Heartbeat CPU 0 instructions: 22000002 cycles: 14830103 heartbeat IPC: 1.02747 cumulative IPC: 1.09384 (Simulation time: 0 hr 10 min 28 sec) 
Heartbeat CPU 0 instructions: 23000001 cycles: 15671904 heartbeat IPC: 1.18793 cumulative IPC: 1.10055 (Simulation time: 0 hr 10 min 59 sec) 
Heartbeat CPU 0 instructions: 24000000 cycles: 16514263 heartbeat IPC: 1.18714 cumulative IPC: 1.10631 (Simulation time: 0 hr 11 min 28 sec) 
Heartbeat CPU 0 instructions: 25000003 cycles: 17405588 heartbeat IPC: 1.12193 cumulative IPC: 1.10734 (Simulation time: 0 hr 11 min 58 sec) 
Heartbeat CPU 0 instructions: 26000001 cycles: 18231426 heartbeat IPC: 1.21089 cumulative IPC: 1.11329 (Simulation time: 0 hr 12 min 28 sec) 
Heartbeat CPU 0 instructions: 27000002 cycles: 19075834 heartbeat IPC: 1.18426 cumulative IPC: 1.11723 (Simulation time: 0 hr 12 min 53 sec) 
Heartbeat CPU 0 instructions: 28000000 cycles: 19963874 heartbeat IPC: 1.12607 cumulative IPC: 1.11772 (Simulation time: 0 hr 13 min 21 sec) 
Heartbeat CPU 0 instructions: 29000003 cycles: 20799171 heartbeat IPC: 1.19718 cumulative IPC: 1.12163 (Simulation time: 0 hr 13 min 50 sec) 
Heartbeat CPU 0 instructions: 30000003 cycles: 21636782 heartbeat IPC: 1.19387 cumulative IPC: 1.12504 (Simulation time: 0 hr 14 min 19 sec) 
Heartbeat CPU 0 instructions: 31000001 cycles: 22506966 heartbeat IPC: 1.14918 cumulative IPC: 1.12616 (Simulation time: 0 hr 14 min 48 sec) 
Heartbeat CPU 0 instructions: 32000000 cycles: 23331965 heartbeat IPC: 1.21212 cumulative IPC: 1.12981 (Simulation time: 0 hr 15 min 16 sec) 
Heartbeat CPU 0 instructions: 33000000 cycles: 24169531 heartbeat IPC: 1.19394 cumulative IPC: 1.13245 (Simulation time: 0 hr 15 min 45 sec) 
Heartbeat CPU 0 instructions: 34000000 cycles: 25028553 heartbeat IPC: 1.16411 cumulative IPC: 1.13374 (Simulation time: 0 hr 16 min 13 sec) 
Heartbeat CPU 0 instructions: 35000002 cycles: 25861342 heartbeat IPC: 1.20079 cumulative IPC: 1.13627 (Simulation time: 0 hr 16 min 39 sec) 
Heartbeat CPU 0 instructions: 36000000 cycles: 26681248 heartbeat IPC: 1.21965 cumulative IPC: 1.13927 (Simulation time: 0 hr 17 min 5 sec) 
Heartbeat CPU 0 instructions: 37000000 cycles: 27548348 heartbeat IPC: 1.15327 cumulative IPC: 1.13978 (Simulation time: 0 hr 17 min 34 sec) 
Heartbeat CPU 0 instructions: 38000002 cycles: 28388683 heartbeat IPC: 1.19 cumulative IPC: 1.1415 (Simulation time: 0 hr 18 min 7 sec) 
Heartbeat CPU 0 instructions: 39000000 cycles: 29254978 heartbeat IPC: 1.15434 cumulative IPC: 1.14194 (Simulation time: 0 hr 18 min 37 sec) 
Heartbeat CPU 0 instructions: 40000000 cycles: 30135589 heartbeat IPC: 1.13558 cumulative IPC: 1.14173 (Simulation time: 0 hr 19 min 8 sec) 
Heartbeat CPU 0 instructions: 41000001 cycles: 30964402 heartbeat IPC: 1.20655 cumulative IPC: 1.14371 (Simulation time: 0 hr 19 min 36 sec) 
Heartbeat CPU 0 instructions: 42000002 cycles: 31825378 heartbeat IPC: 1.16147 cumulative IPC: 1.14426 (Simulation time: 0 hr 20 min 3 sec) 
Heartbeat CPU 0 instructions: 43000001 cycles: 32670939 heartbeat IPC: 1.18265 cumulative IPC: 1.14538 (Simulation time: 0 hr 20 min 30 sec) 
Heartbeat CPU 0 instructions: 44000000 cycles: 33498191 heartbeat IPC: 1.20882 cumulative IPC: 1.14715 (Simulation time: 0 hr 20 min 58 sec) 
Heartbeat CPU 0 instructions: 45000001 cycles: 34353655 heartbeat IPC: 1.16896 cumulative IPC: 1.14776 (Simulation time: 0 hr 21 min 27 sec) 
Heartbeat CPU 0 instructions: 46000001 cycles: 35216580 heartbeat IPC: 1.15885 cumulative IPC: 1.14807 (Simulation time: 0 hr 21 min 55 sec) 
Heartbeat CPU 0 instructions: 47000003 cycles: 36042340 heartbeat IPC: 1.21101 cumulative IPC: 1.14968 (Simulation time: 0 hr 22 min 24 sec) 
Heartbeat CPU 0 instructions: 48000000 cycles: 36916038 heartbeat IPC: 1.14456 cumulative IPC: 1.14955 (Simulation time: 0 hr 22 min 54 sec) 
Heartbeat CPU 0 instructions: 49000002 cycles: 37753144 heartbeat IPC: 1.19459 cumulative IPC: 1.15066 (Simulation time: 0 hr 23 min 24 sec) 
Heartbeat CPU 0 instructions: 50000003 cycles: 38571481 heartbeat IPC: 1.22199 cumulative IPC: 1.15234 (Simulation time: 0 hr 23 min 54 sec) 
Heartbeat CPU 0 instructions: 51000001 cycles: 39439122 heartbeat IPC: 1.15255 cumulative IPC: 1.15235 (Simulation time: 0 hr 24 min 24 sec) 
Heartbeat CPU 0 instructions: 52000000 cycles: 40249876 heartbeat IPC: 1.23342 cumulative IPC: 1.15415 (Simulation time: 0 hr 24 min 52 sec) 
Heartbeat CPU 0 instructions: 53000001 cycles: 41078252 heartbeat IPC: 1.20718 cumulative IPC: 1.15533 (Simulation time: 0 hr 25 min 22 sec) 
Heartbeat CPU 0 instructions: 54000001 cycles: 41922743 heartbeat IPC: 1.18415 cumulative IPC: 1.15597 (Simulation time: 0 hr 25 min 52 sec) 
Heartbeat CPU 0 instructions: 55000000 cycles: 42715105 heartbeat IPC: 1.26205 cumulative IPC: 1.15814 (Simulation time: 0 hr 26 min 21 sec) 
Heartbeat CPU 0 instructions: 56000000 cycles: 43537660 heartbeat IPC: 1.21572 cumulative IPC: 1.15933 (Simulation time: 0 hr 26 min 49 sec) 
Heartbeat CPU 0 instructions: 57000000 cycles: 44492367 heartbeat IPC: 1.04744 cumulative IPC: 1.1567 (Simulation time: 0 hr 27 min 18 sec) 
Heartbeat CPU 0 instructions: 58000002 cycles: 45621470 heartbeat IPC: 0.885661 cumulative IPC: 1.14937 (Simulation time: 0 hr 27 min 49 sec) 
Heartbeat CPU 0 instructions: 59000001 cycles: 46462745 heartbeat IPC: 1.18867 cumulative IPC: 1.15015 (Simulation time: 0 hr 28 min 20 sec) 
Heartbeat CPU 0 instructions: 60000000 cycles: 47285048 heartbeat IPC: 1.2161 cumulative IPC: 1.1514 (Simulation time: 0 hr 28 min 48 sec) 
Heartbeat CPU 0 instructions: 61000001 cycles: 48115240 heartbeat IPC: 1.20454 cumulative IPC: 1.1524 (Simulation time: 0 hr 29 min 21 sec) 
Heartbeat CPU 0 instructions: 62000000 cycles: 48934376 heartbeat IPC: 1.2208 cumulative IPC: 1.15364 (Simulation time: 0 hr 29 min 52 sec) 
Heartbeat CPU 0 instructions: 63000002 cycles: 49750780 heartbeat IPC: 1.22489 cumulative IPC: 1.15491 (Simulation time: 0 hr 30 min 20 sec) 
Heartbeat CPU 0 instructions: 64000000 cycles: 50597358 heartbeat IPC: 1.18122 cumulative IPC: 1.15538 (Simulation time: 0 hr 30 min 51 sec) 
Heartbeat CPU 0 instructions: 65000001 cycles: 51401881 heartbeat IPC: 1.24297 cumulative IPC: 1.15686 (Simulation time: 0 hr 31 min 20 sec) 
Heartbeat CPU 0 instructions: 66000000 cycles: 52224528 heartbeat IPC: 1.21559 cumulative IPC: 1.15786 (Simulation time: 0 hr 31 min 49 sec) 
Heartbeat CPU 0 instructions: 67000003 cycles: 53103286 heartbeat IPC: 1.13797 cumulative IPC: 1.15751 (Simulation time: 0 hr 32 min 20 sec) 
Heartbeat CPU 0 instructions: 68000000 cycles: 53914469 heartbeat IPC: 1.23276 cumulative IPC: 1.15873 (Simulation time: 0 hr 32 min 52 sec) 
Heartbeat CPU 0 instructions: 69000003 cycles: 54737595 heartbeat IPC: 1.21488 cumulative IPC: 1.15964 (Simulation time: 0 hr 33 min 25 sec) 
Heartbeat CPU 0 instructions: 70000000 cycles: 55607401 heartbeat IPC: 1.14968 cumulative IPC: 1.15947 (Simulation time: 0 hr 33 min 56 sec) 
Heartbeat CPU 0 instructions: 71000002 cycles: 56423421 heartbeat IPC: 1.22546 cumulative IPC: 1.16049 (Simulation time: 0 hr 34 min 27 sec) 
Heartbeat CPU 0 instructions: 72000000 cycles: 57243926 heartbeat IPC: 1.21876 cumulative IPC: 1.16139 (Simulation time: 0 hr 34 min 59 sec) 
Heartbeat CPU 0 instructions: 73000003 cycles: 58098685 heartbeat IPC: 1.16992 cumulative IPC: 1.16152 (Simulation time: 0 hr 35 min 31 sec) 
Heartbeat CPU 0 instructions: 74000003 cycles: 58909221 heartbeat IPC: 1.23375 cumulative IPC: 1.16259 (Simulation time: 0 hr 36 min 4 sec) 
Heartbeat CPU 0 instructions: 75000002 cycles: 59738177 heartbeat IPC: 1.20634 cumulative IPC: 1.16324 (Simulation time: 0 hr 36 min 36 sec) 
Heartbeat CPU 0 instructions: 76000000 cycles: 60590047 heartbeat IPC: 1.17389 cumulative IPC: 1.1634 (Simulation time: 0 hr 37 min 9 sec) 
Heartbeat CPU 0 instructions: 77000003 cycles: 61424334 heartbeat IPC: 1.19863 cumulative IPC: 1.16391 (Simulation time: 0 hr 37 min 39 sec) 
Heartbeat CPU 0 instructions: 78000003 cycles: 62244381 heartbeat IPC: 1.21944 cumulative IPC: 1.16469 (Simulation time: 0 hr 38 min 11 sec) 
Heartbeat CPU 0 instructions: 79000003 cycles: 63091034 heartbeat IPC: 1.18112 cumulative IPC: 1.16492 (Simulation time: 0 hr 38 min 40 sec) 
Heartbeat CPU 0 instructions: 80000000 cycles: 63930460 heartbeat IPC: 1.19129 cumulative IPC: 1.16529 (Simulation time: 0 hr 39 min 8 sec) 
Heartbeat CPU 0 instructions: 81000001 cycles: 64755009 heartbeat IPC: 1.21279 cumulative IPC: 1.16593 (Simulation time: 0 hr 39 min 37 sec) 
Heartbeat CPU 0 instructions: 82000002 cycles: 65602450 heartbeat IPC: 1.18002 cumulative IPC: 1.16613 (Simulation time: 0 hr 40 min 6 sec) 
Heartbeat CPU 0 instructions: 83000003 cycles: 66443897 heartbeat IPC: 1.18843 cumulative IPC: 1.16643 (Simulation time: 0 hr 40 min 43 sec) 
Heartbeat CPU 0 instructions: 84000000 cycles: 67263607 heartbeat IPC: 1.21994 cumulative IPC: 1.16712 (Simulation time: 0 hr 41 min 13 sec) 
Heartbeat CPU 0 instructions: 85000001 cycles: 68099795 heartbeat IPC: 1.1959 cumulative IPC: 1.16749 (Simulation time: 0 hr 41 min 45 sec) 
Heartbeat CPU 0 instructions: 86000000 cycles: 68913590 heartbeat IPC: 1.22881 cumulative IPC: 1.16826 (Simulation time: 0 hr 42 min 17 sec) 
Heartbeat CPU 0 instructions: 87000003 cycles: 69741352 heartbeat IPC: 1.20808 cumulative IPC: 1.16876 (Simulation time: 0 hr 42 min 47 sec) 
Heartbeat CPU 0 instructions: 88000000 cycles: 70576510 heartbeat IPC: 1.19737 cumulative IPC: 1.16912 (Simulation time: 0 hr 43 min 17 sec) 
Heartbeat CPU 0 instructions: 89000000 cycles: 71387718 heartbeat IPC: 1.23273 cumulative IPC: 1.16988 (Simulation time: 0 hr 43 min 49 sec) 
Heartbeat CPU 0 instructions: 90000000 cycles: 72195265 heartbeat IPC: 1.23832 cumulative IPC: 1.17069 (Simulation time: 0 hr 44 min 23 sec) 
Heartbeat CPU 0 instructions: 91000001 cycles: 73024424 heartbeat IPC: 1.20604 cumulative IPC: 1.17112 (Simulation time: 0 hr 44 min 59 sec) 
Heartbeat CPU 0 instructions: 92000000 cycles: 73845546 heartbeat IPC: 1.21784 cumulative IPC: 1.17166 (Simulation time: 0 hr 45 min 28 sec) 
Heartbeat CPU 0 instructions: 93000002 cycles: 74640447 heartbeat IPC: 1.25802 cumulative IPC: 1.17263 (Simulation time: 0 hr 45 min 57 sec) 
Heartbeat CPU 0 instructions: 94000000 cycles: 75487127 heartbeat IPC: 1.18108 cumulative IPC: 1.17273 (Simulation time: 0 hr 46 min 26 sec) 
Heartbeat CPU 0 instructions: 95000000 cycles: 76305941 heartbeat IPC: 1.22128 cumulative IPC: 1.17328 (Simulation time: 0 hr 46 min 56 sec) 
Heartbeat CPU 0 instructions: 96000000 cycles: 77128306 heartbeat IPC: 1.21601 cumulative IPC: 1.17376 (Simulation time: 0 hr 47 min 26 sec) 
Heartbeat CPU 0 instructions: 97000002 cycles: 78352061 heartbeat IPC: 0.817159 cumulative IPC: 1.1679 (Simulation time: 0 hr 48 min 0 sec) 
Heartbeat CPU 0 instructions: 98000003 cycles: 79314424 heartbeat IPC: 1.03911 cumulative IPC: 1.16626 (Simulation time: 0 hr 48 min 29 sec) 
Heartbeat CPU 0 instructions: 99000000 cycles: 80155466 heartbeat IPC: 1.189 cumulative IPC: 1.16651 (Simulation time: 0 hr 49 min 0 sec) 
Heartbeat CPU 0 instructions: 100000000 cycles: 80978948 heartbeat IPC: 1.21436 cumulative IPC: 1.16702 (Simulation time: 0 hr 49 min 29 sec) 
Heartbeat CPU 0 instructions: 101000001 cycles: 82418342 heartbeat IPC: 0.694737 cumulative IPC: 1.15837 (Simulation time: 0 hr 49 min 59 sec) 
Heartbeat CPU 0 instructions: 102000002 cycles: 83292928 heartbeat IPC: 1.1434 cumulative IPC: 1.1582 (Simulation time: 0 hr 50 min 30 sec) 
Heartbeat CPU 0 instructions: 103000001 cycles: 84136149 heartbeat IPC: 1.18593 cumulative IPC: 1.1585 (Simulation time: 0 hr 50 min 57 sec) 
Heartbeat CPU 0 instructions: 104000000 cycles: 85497433 heartbeat IPC: 0.7346 cumulative IPC: 1.15143 (Simulation time: 0 hr 51 min 28 sec) 
Heartbeat CPU 0 instructions: 105000002 cycles: 86377862 heartbeat IPC: 1.13581 cumulative IPC: 1.15126 (Simulation time: 0 hr 51 min 54 sec) 
Heartbeat CPU 0 instructions: 106000000 cycles: 87215360 heartbeat IPC: 1.19403 cumulative IPC: 1.15169 (Simulation time: 0 hr 52 min 22 sec) 
Heartbeat CPU 0 instructions: 107000001 cycles: 88391179 heartbeat IPC: 0.850472 cumulative IPC: 1.1475 (Simulation time: 0 hr 52 min 51 sec) 
Heartbeat CPU 0 instructions: 108000000 cycles: 89441753 heartbeat IPC: 0.95186 cumulative IPC: 1.1451 (Simulation time: 0 hr 53 min 20 sec) 
Heartbeat CPU 0 instructions: 109000003 cycles: 90284917 heartbeat IPC: 1.18601 cumulative IPC: 1.1455 (Simulation time: 0 hr 53 min 47 sec) 
Heartbeat CPU 0 instructions: 110000000 cycles: 91191877 heartbeat IPC: 1.10258 cumulative IPC: 1.14505 (Simulation time: 0 hr 54 min 15 sec) 
Finished CPU 0 instructions: 100000003 cycles: 87332287 cummulative IPC: 1.14505 (Simulation time: 0 hr 54 min 15 sec) 

ChampSim completed all CPUs

Region of Interest Statistics

CPU 0 cummulative IPC: 1.14505 instructions: 100000003 cycles: 87332287
LLC TOTAL     ACCESS:    1445841  HIT:     543622  MISS:     902219
LLC LOAD      ACCESS:     118881  HIT:      78514  MISS:      40367
LLC RFO       ACCESS:     122018  HIT:     117297  MISS:       4721
LLC PREFETCH  ACCESS:    1076548  HIT:     221444  MISS:     855104
LLC WRITEBACK ACCESS:     128394  HIT:     126367  MISS:       2027
Insertion Distribution: 
	LOAD 8332 0 22520 21140 
	RFO 2172 0 5813 1016 
	PREF 0 1516 47685 909528 
	WRITEBACK 0 0 0 2311 
Total Prefetch Downgrades: 2983
