
*** ChampSim Multicore Out-of-Order Simulator ***

Warmup Instructions: 10000000
Simulation Instructions: 100000000
Configuration: 2
Number of CPUs: 1
LLC sets: 2048
LLC ways: 16
Off-chip DRAM Channels: 1 Width: 64-bit Data Rate: 1600 MT/s

CPU 0 runs /datasets/cs240c-wi22-a00-public/data/Assignment2-gz/leslie3d_94B.trace.gz
CPU 0 L1D next line prefetcher
CPU 0 L2C IP-based stride prefetcher
Initialize SRRIP state
Heartbeat CPU 0 instructions: 1000003 cycles: 597054 heartbeat IPC: 1.6749 cumulative IPC: 1.6749 (Simulation time: 0 hr 0 min 37 sec) 
Heartbeat CPU 0 instructions: 2000002 cycles: 1215947 heartbeat IPC: 1.61579 cumulative IPC: 1.64481 (Simulation time: 0 hr 1 min 16 sec) 
Heartbeat CPU 0 instructions: 3000003 cycles: 1867769 heartbeat IPC: 1.53416 cumulative IPC: 1.6062 (Simulation time: 0 hr 1 min 56 sec) 
Heartbeat CPU 0 instructions: 4000000 cycles: 2519055 heartbeat IPC: 1.53542 cumulative IPC: 1.5879 (Simulation time: 0 hr 2 min 42 sec) 
Heartbeat CPU 0 instructions: 5000002 cycles: 3084017 heartbeat IPC: 1.77003 cumulative IPC: 1.62126 (Simulation time: 0 hr 3 min 15 sec) 
Heartbeat CPU 0 instructions: 6000002 cycles: 3734655 heartbeat IPC: 1.53695 cumulative IPC: 1.60657 (Simulation time: 0 hr 3 min 54 sec) 
Heartbeat CPU 0 instructions: 7000000 cycles: 4385355 heartbeat IPC: 1.5368 cumulative IPC: 1.59622 (Simulation time: 0 hr 4 min 32 sec) 
Heartbeat CPU 0 instructions: 8000000 cycles: 4950348 heartbeat IPC: 1.76993 cumulative IPC: 1.61605 (Simulation time: 0 hr 5 min 9 sec) 
Heartbeat CPU 0 instructions: 9000000 cycles: 5601234 heartbeat IPC: 1.53637 cumulative IPC: 1.60679 (Simulation time: 0 hr 5 min 48 sec) 
Heartbeat CPU 0 instructions: 10000001 cycles: 6252453 heartbeat IPC: 1.53558 cumulative IPC: 1.59937 (Simulation time: 0 hr 6 min 28 sec) 

Warmup complete CPU 0 instructions: 10000001 cycles: 6252453 (Simulation time: 0 hr 6 min 28 sec) 

Heartbeat CPU 0 instructions: 11000000 cycles: 7502221 heartbeat IPC: 0.800148 cumulative IPC: 0.800148 (Simulation time: 0 hr 7 min 8 sec) 
Heartbeat CPU 0 instructions: 12000000 cycles: 9460166 heartbeat IPC: 0.51074 cumulative IPC: 0.623497 (Simulation time: 0 hr 7 min 51 sec) 
Heartbeat CPU 0 instructions: 13000000 cycles: 11500475 heartbeat IPC: 0.490122 cumulative IPC: 0.571644 (Simulation time: 0 hr 8 min 36 sec) 
Heartbeat CPU 0 instructions: 14000001 cycles: 13500606 heartbeat IPC: 0.499968 cumulative IPC: 0.551865 (Simulation time: 0 hr 9 min 23 sec) 
Heartbeat CPU 0 instructions: 15000001 cycles: 15485975 heartbeat IPC: 0.503685 cumulative IPC: 0.541505 (Simulation time: 0 hr 10 min 8 sec) 
Heartbeat CPU 0 instructions: 16000000 cycles: 17469997 heartbeat IPC: 0.504026 cumulative IPC: 0.534876 (Simulation time: 0 hr 10 min 52 sec) 
Heartbeat CPU 0 instructions: 17000000 cycles: 19392271 heartbeat IPC: 0.520217 cumulative IPC: 0.532732 (Simulation time: 0 hr 11 min 32 sec) 
Heartbeat CPU 0 instructions: 18000002 cycles: 21331753 heartbeat IPC: 0.515603 cumulative IPC: 0.530529 (Simulation time: 0 hr 12 min 12 sec) 
Heartbeat CPU 0 instructions: 19000001 cycles: 23252913 heartbeat IPC: 0.520518 cumulative IPC: 0.529397 (Simulation time: 0 hr 12 min 52 sec) 
Heartbeat CPU 0 instructions: 20000000 cycles: 25213058 heartbeat IPC: 0.510166 cumulative IPC: 0.527409 (Simulation time: 0 hr 13 min 35 sec) 
Heartbeat CPU 0 instructions: 21000002 cycles: 27129376 heartbeat IPC: 0.521835 cumulative IPC: 0.526898 (Simulation time: 0 hr 14 min 16 sec) 
Heartbeat CPU 0 instructions: 22000002 cycles: 29480515 heartbeat IPC: 0.425326 cumulative IPC: 0.516617 (Simulation time: 0 hr 14 min 59 sec) 
Heartbeat CPU 0 instructions: 23000000 cycles: 31826488 heartbeat IPC: 0.426262 cumulative IPC: 0.508328 (Simulation time: 0 hr 15 min 46 sec) 
Heartbeat CPU 0 instructions: 24000000 cycles: 34185103 heartbeat IPC: 0.423978 cumulative IPC: 0.501206 (Simulation time: 0 hr 16 min 30 sec) 
Heartbeat CPU 0 instructions: 25000000 cycles: 36537597 heartbeat IPC: 0.425081 cumulative IPC: 0.495292 (Simulation time: 0 hr 17 min 12 sec) 
Heartbeat CPU 0 instructions: 26000002 cycles: 38845412 heartbeat IPC: 0.433311 cumulative IPC: 0.490904 (Simulation time: 0 hr 17 min 59 sec) 
Heartbeat CPU 0 instructions: 27000001 cycles: 41199477 heartbeat IPC: 0.424797 cumulative IPC: 0.486451 (Simulation time: 0 hr 18 min 47 sec) 
Heartbeat CPU 0 instructions: 28000000 cycles: 43557111 heartbeat IPC: 0.424154 cumulative IPC: 0.482513 (Simulation time: 0 hr 19 min 35 sec) 
Heartbeat CPU 0 instructions: 29000000 cycles: 45879284 heartbeat IPC: 0.430631 cumulative IPC: 0.479473 (Simulation time: 0 hr 20 min 20 sec) 
Heartbeat CPU 0 instructions: 30000000 cycles: 47242422 heartbeat IPC: 0.733601 cumulative IPC: 0.487924 (Simulation time: 0 hr 20 min 59 sec) 
Heartbeat CPU 0 instructions: 31000002 cycles: 48506097 heartbeat IPC: 0.791344 cumulative IPC: 0.496999 (Simulation time: 0 hr 21 min 39 sec) 
Heartbeat CPU 0 instructions: 32000000 cycles: 49792992 heartbeat IPC: 0.777063 cumulative IPC: 0.505276 (Simulation time: 0 hr 22 min 27 sec) 
Heartbeat CPU 0 instructions: 33000001 cycles: 51064432 heartbeat IPC: 0.786511 cumulative IPC: 0.513256 (Simulation time: 0 hr 23 min 7 sec) 
Heartbeat CPU 0 instructions: 34000003 cycles: 52357601 heartbeat IPC: 0.773296 cumulative IPC: 0.520549 (Simulation time: 0 hr 23 min 44 sec) 
Heartbeat CPU 0 instructions: 35000001 cycles: 53621285 heartbeat IPC: 0.791335 cumulative IPC: 0.527773 (Simulation time: 0 hr 24 min 21 sec) 
Heartbeat CPU 0 instructions: 36000000 cycles: 54933445 heartbeat IPC: 0.762101 cumulative IPC: 0.534089 (Simulation time: 0 hr 24 min 59 sec) 
Heartbeat CPU 0 instructions: 37000003 cycles: 56205429 heartbeat IPC: 0.786176 cumulative IPC: 0.540508 (Simulation time: 0 hr 25 min 38 sec) 
Heartbeat CPU 0 instructions: 38000000 cycles: 57483740 heartbeat IPC: 0.78228 cumulative IPC: 0.546541 (Simulation time: 0 hr 26 min 19 sec) 
Heartbeat CPU 0 instructions: 39000001 cycles: 58780489 heartbeat IPC: 0.77116 cumulative IPC: 0.552086 (Simulation time: 0 hr 26 min 58 sec) 
Heartbeat CPU 0 instructions: 40000000 cycles: 60039245 heartbeat IPC: 0.794434 cumulative IPC: 0.557758 (Simulation time: 0 hr 27 min 35 sec) 
Heartbeat CPU 0 instructions: 41000002 cycles: 61354338 heartbeat IPC: 0.760404 cumulative IPC: 0.562594 (Simulation time: 0 hr 28 min 20 sec) 
Heartbeat CPU 0 instructions: 42000002 cycles: 62619257 heartbeat IPC: 0.790564 cumulative IPC: 0.56771 (Simulation time: 0 hr 28 min 59 sec) 
Heartbeat CPU 0 instructions: 43000002 cycles: 63939504 heartbeat IPC: 0.757434 cumulative IPC: 0.572052 (Simulation time: 0 hr 29 min 39 sec) 
Heartbeat CPU 0 instructions: 44000000 cycles: 65216669 heartbeat IPC: 0.782983 cumulative IPC: 0.576621 (Simulation time: 0 hr 30 min 19 sec) 
Heartbeat CPU 0 instructions: 45000003 cycles: 66517823 heartbeat IPC: 0.768551 cumulative IPC: 0.580765 (Simulation time: 0 hr 31 min 0 sec) 
Heartbeat CPU 0 instructions: 46000001 cycles: 67868354 heartbeat IPC: 0.740448 cumulative IPC: 0.584265 (Simulation time: 0 hr 31 min 39 sec) 
Heartbeat CPU 0 instructions: 47000000 cycles: 69151153 heartbeat IPC: 0.779545 cumulative IPC: 0.588247 (Simulation time: 0 hr 32 min 17 sec) 
Heartbeat CPU 0 instructions: 48000000 cycles: 70490306 heartbeat IPC: 0.746741 cumulative IPC: 0.591551 (Simulation time: 0 hr 32 min 57 sec) 
Heartbeat CPU 0 instructions: 49000001 cycles: 71772722 heartbeat IPC: 0.779779 cumulative IPC: 0.595236 (Simulation time: 0 hr 33 min 36 sec) 
Heartbeat CPU 0 instructions: 50000001 cycles: 73092683 heartbeat IPC: 0.757598 cumulative IPC: 0.598442 (Simulation time: 0 hr 34 min 13 sec) 
Heartbeat CPU 0 instructions: 51000003 cycles: 74381990 heartbeat IPC: 0.775612 cumulative IPC: 0.601795 (Simulation time: 0 hr 34 min 52 sec) 
Heartbeat CPU 0 instructions: 52000000 cycles: 75660183 heartbeat IPC: 0.782352 cumulative IPC: 0.60512 (Simulation time: 0 hr 35 min 34 sec) 
Heartbeat CPU 0 instructions: 53000002 cycles: 76989619 heartbeat IPC: 0.7522 cumulative IPC: 0.607884 (Simulation time: 0 hr 36 min 20 sec) 
Heartbeat CPU 0 instructions: 54000001 cycles: 78269179 heartbeat IPC: 0.781518 cumulative IPC: 0.610969 (Simulation time: 0 hr 36 min 59 sec) 
Heartbeat CPU 0 instructions: 55000000 cycles: 79592136 heartbeat IPC: 0.755882 cumulative IPC: 0.613583 (Simulation time: 0 hr 37 min 40 sec) 
Heartbeat CPU 0 instructions: 56000000 cycles: 80881592 heartbeat IPC: 0.775521 cumulative IPC: 0.616381 (Simulation time: 0 hr 38 min 22 sec) 
Heartbeat CPU 0 instructions: 57000000 cycles: 82188759 heartbeat IPC: 0.765013 cumulative IPC: 0.61894 (Simulation time: 0 hr 39 min 3 sec) 
Heartbeat CPU 0 instructions: 58000001 cycles: 83464487 heartbeat IPC: 0.783867 cumulative IPC: 0.621665 (Simulation time: 0 hr 39 min 45 sec) 
Heartbeat CPU 0 instructions: 59000000 cycles: 84725097 heartbeat IPC: 0.793266 cumulative IPC: 0.624421 (Simulation time: 0 hr 40 min 27 sec) 
Heartbeat CPU 0 instructions: 60000000 cycles: 86033217 heartbeat IPC: 0.764456 cumulative IPC: 0.626717 (Simulation time: 0 hr 41 min 5 sec) 
Heartbeat CPU 0 instructions: 61000001 cycles: 87313794 heartbeat IPC: 0.780899 cumulative IPC: 0.629153 (Simulation time: 0 hr 41 min 46 sec) 
Heartbeat CPU 0 instructions: 62000000 cycles: 88604166 heartbeat IPC: 0.77497 cumulative IPC: 0.631438 (Simulation time: 0 hr 42 min 24 sec) 
Heartbeat CPU 0 instructions: 63000001 cycles: 89878337 heartbeat IPC: 0.784825 cumulative IPC: 0.633775 (Simulation time: 0 hr 43 min 5 sec) 
Heartbeat CPU 0 instructions: 64000000 cycles: 91173919 heartbeat IPC: 0.771853 cumulative IPC: 0.635882 (Simulation time: 0 hr 43 min 48 sec) 
Heartbeat CPU 0 instructions: 65000000 cycles: 92456949 heartbeat IPC: 0.779405 cumulative IPC: 0.638018 (Simulation time: 0 hr 44 min 30 sec) 
Heartbeat CPU 0 instructions: 66000000 cycles: 93743696 heartbeat IPC: 0.777154 cumulative IPC: 0.640064 (Simulation time: 0 hr 45 min 13 sec) 
Heartbeat CPU 0 instructions: 67000003 cycles: 95022643 heartbeat IPC: 0.781896 cumulative IPC: 0.642107 (Simulation time: 0 hr 45 min 51 sec) 
Heartbeat CPU 0 instructions: 68000000 cycles: 96295406 heartbeat IPC: 0.78569 cumulative IPC: 0.644137 (Simulation time: 0 hr 46 min 28 sec) 
Heartbeat CPU 0 instructions: 69000000 cycles: 97587629 heartbeat IPC: 0.77386 cumulative IPC: 0.645972 (Simulation time: 0 hr 47 min 8 sec) 
Heartbeat CPU 0 instructions: 70000001 cycles: 98863028 heartbeat IPC: 0.784069 cumulative IPC: 0.647874 (Simulation time: 0 hr 47 min 49 sec) 
Heartbeat CPU 0 instructions: 71000002 cycles: 100178086 heartbeat IPC: 0.760423 cumulative IPC: 0.64945 (Simulation time: 0 hr 48 min 28 sec) 
Heartbeat CPU 0 instructions: 72000000 cycles: 101452620 heartbeat IPC: 0.784599 cumulative IPC: 0.651259 (Simulation time: 0 hr 49 min 9 sec) 
Heartbeat CPU 0 instructions: 73000000 cycles: 102754716 heartbeat IPC: 0.767993 cumulative IPC: 0.652834 (Simulation time: 0 hr 49 min 47 sec) 
Heartbeat CPU 0 instructions: 74000000 cycles: 104038742 heartbeat IPC: 0.7788 cumulative IPC: 0.654488 (Simulation time: 0 hr 50 min 22 sec) 
Heartbeat CPU 0 instructions: 75000002 cycles: 105313359 heartbeat IPC: 0.784551 cumulative IPC: 0.656162 (Simulation time: 0 hr 50 min 58 sec) 
Heartbeat CPU 0 instructions: 76000000 cycles: 106623721 heartbeat IPC: 0.763146 cumulative IPC: 0.657559 (Simulation time: 0 hr 51 min 33 sec) 
Heartbeat CPU 0 instructions: 77000000 cycles: 107905231 heartbeat IPC: 0.780329 cumulative IPC: 0.659106 (Simulation time: 0 hr 52 min 10 sec) 
Heartbeat CPU 0 instructions: 78000003 cycles: 109242974 heartbeat IPC: 0.74753 cumulative IPC: 0.660255 (Simulation time: 0 hr 52 min 48 sec) 
Heartbeat CPU 0 instructions: 79000000 cycles: 110713293 heartbeat IPC: 0.680122 cumulative IPC: 0.660535 (Simulation time: 0 hr 53 min 22 sec) 
Heartbeat CPU 0 instructions: 80000000 cycles: 112368773 heartbeat IPC: 0.604054 cumulative IPC: 0.659653 (Simulation time: 0 hr 53 min 56 sec) 
Heartbeat CPU 0 instructions: 81000002 cycles: 113990976 heartbeat IPC: 0.616447 cumulative IPC: 0.659003 (Simulation time: 0 hr 54 min 27 sec) 
Heartbeat CPU 0 instructions: 82000003 cycles: 115658294 heartbeat IPC: 0.599766 cumulative IPC: 0.6581 (Simulation time: 0 hr 54 min 57 sec) 
Heartbeat CPU 0 instructions: 83000002 cycles: 117339848 heartbeat IPC: 0.594687 cumulative IPC: 0.65714 (Simulation time: 0 hr 55 min 27 sec) 
Heartbeat CPU 0 instructions: 84000000 cycles: 118972980 heartbeat IPC: 0.612319 cumulative IPC: 0.656491 (Simulation time: 0 hr 55 min 53 sec) 
Heartbeat CPU 0 instructions: 85000001 cycles: 120634858 heartbeat IPC: 0.60173 cumulative IPC: 0.655695 (Simulation time: 0 hr 56 min 20 sec) 
Heartbeat CPU 0 instructions: 86000002 cycles: 122271618 heartbeat IPC: 0.610964 cumulative IPC: 0.655064 (Simulation time: 0 hr 56 min 46 sec) 
Heartbeat CPU 0 instructions: 87000000 cycles: 123919150 heartbeat IPC: 0.606967 cumulative IPC: 0.654391 (Simulation time: 0 hr 57 min 10 sec) 
Heartbeat CPU 0 instructions: 88000000 cycles: 125594987 heartbeat IPC: 0.596717 cumulative IPC: 0.653581 (Simulation time: 0 hr 57 min 34 sec) 
Heartbeat CPU 0 instructions: 89000002 cycles: 127232375 heartbeat IPC: 0.61073 cumulative IPC: 0.653001 (Simulation time: 0 hr 57 min 58 sec) 
Heartbeat CPU 0 instructions: 90000001 cycles: 128881809 heartbeat IPC: 0.606268 cumulative IPC: 0.652372 (Simulation time: 0 hr 58 min 20 sec) 
Heartbeat CPU 0 instructions: 91000003 cycles: 130528038 heartbeat IPC: 0.60745 cumulative IPC: 0.651777 (Simulation time: 0 hr 58 min 41 sec) 
Heartbeat CPU 0 instructions: 92000000 cycles: 132180085 heartbeat IPC: 0.605308 cumulative IPC: 0.651168 (Simulation time: 0 hr 59 min 2 sec) 
Heartbeat CPU 0 instructions: 93000001 cycles: 133860526 heartbeat IPC: 0.595082 cumulative IPC: 0.650429 (Simulation time: 0 hr 59 min 24 sec) 
Heartbeat CPU 0 instructions: 94000003 cycles: 135519199 heartbeat IPC: 0.602893 cumulative IPC: 0.649819 (Simulation time: 0 hr 59 min 45 sec) 
Heartbeat CPU 0 instructions: 95000002 cycles: 137230799 heartbeat IPC: 0.584248 cumulative IPC: 0.648962 (Simulation time: 1 hr 0 min 5 sec) 
Heartbeat CPU 0 instructions: 96000000 cycles: 138881170 heartbeat IPC: 0.605923 cumulative IPC: 0.648427 (Simulation time: 1 hr 0 min 26 sec) 
Heartbeat CPU 0 instructions: 97000003 cycles: 140861006 heartbeat IPC: 0.505094 cumulative IPC: 0.646319 (Simulation time: 1 hr 0 min 48 sec) 
Heartbeat CPU 0 instructions: 98000002 cycles: 146489157 heartbeat IPC: 0.177678 cumulative IPC: 0.62751 (Simulation time: 1 hr 1 min 31 sec) 
Heartbeat CPU 0 instructions: 99000000 cycles: 149480890 heartbeat IPC: 0.334254 cumulative IPC: 0.621385 (Simulation time: 1 hr 2 min 2 sec) 
Heartbeat CPU 0 instructions: 100000000 cycles: 151090831 heartbeat IPC: 0.621141 cumulative IPC: 0.621382 (Simulation time: 1 hr 2 min 18 sec) 
Heartbeat CPU 0 instructions: 101000002 cycles: 152344703 heartbeat IPC: 0.797531 cumulative IPC: 0.622894 (Simulation time: 1 hr 2 min 31 sec) 
Heartbeat CPU 0 instructions: 102000003 cycles: 153711931 heartbeat IPC: 0.731408 cumulative IPC: 0.6239 (Simulation time: 1 hr 2 min 44 sec) 
Heartbeat CPU 0 instructions: 103000002 cycles: 155207364 heartbeat IPC: 0.668702 cumulative IPC: 0.62435 (Simulation time: 1 hr 2 min 57 sec) 
Heartbeat CPU 0 instructions: 104000000 cycles: 156721170 heartbeat IPC: 0.660585 cumulative IPC: 0.624715 (Simulation time: 1 hr 3 min 11 sec) 
Heartbeat CPU 0 instructions: 105000001 cycles: 158247428 heartbeat IPC: 0.655198 cumulative IPC: 0.625021 (Simulation time: 1 hr 3 min 23 sec) 
Heartbeat CPU 0 instructions: 106000001 cycles: 159778070 heartbeat IPC: 0.653321 cumulative IPC: 0.625303 (Simulation time: 1 hr 3 min 35 sec) 
Heartbeat CPU 0 instructions: 107000001 cycles: 161320577 heartbeat IPC: 0.648295 cumulative IPC: 0.625532 (Simulation time: 1 hr 3 min 47 sec) 
Heartbeat CPU 0 instructions: 108000000 cycles: 162863410 heartbeat IPC: 0.648158 cumulative IPC: 0.625754 (Simulation time: 1 hr 3 min 59 sec) 
Heartbeat CPU 0 instructions: 109000001 cycles: 164387855 heartbeat IPC: 0.655977 cumulative IPC: 0.626046 (Simulation time: 1 hr 4 min 11 sec) 
Heartbeat CPU 0 instructions: 110000001 cycles: 165927648 heartbeat IPC: 0.649438 cumulative IPC: 0.626271 (Simulation time: 1 hr 4 min 22 sec) 
Finished CPU 0 instructions: 100000000 cycles: 159675195 cummulative IPC: 0.626271 (Simulation time: 1 hr 4 min 22 sec) 

ChampSim completed all CPUs

Region of Interest Statistics

CPU 0 cummulative IPC: 0.626271 instructions: 100000000 cycles: 159675195
LLC TOTAL     ACCESS:    4602478  HIT:     829459  MISS:    3773019
LLC LOAD      ACCESS:     464496  HIT:      93436  MISS:     371060
LLC RFO       ACCESS:     743351  HIT:      89390  MISS:     653961
LLC PREFETCH  ACCESS:    2294654  HIT:     365793  MISS:    1928861
LLC WRITEBACK ACCESS:    1099977  HIT:     280840  MISS:     819137
Insertion Distribution: 
	LOAD 40616 0 56338 277846 
	RFO 7089 0 42920 613533 
	PREF 0 51849 198442 1860115 
	WRITEBACK 0 0 0 842204 
Total Prefetch Downgrades: 47221
