
*** ChampSim Multicore Out-of-Order Simulator ***

Warmup Instructions: 10000000
Simulation Instructions: 100000000
Configuration: 2
Number of CPUs: 1
LLC sets: 2048
LLC ways: 16
Off-chip DRAM Channels: 1 Width: 64-bit Data Rate: 1600 MT/s

CPU 0 runs /datasets/cs240c-wi22-a00-public/data/Assignment2-gz/bzip2_183B.trace.gz
CPU 0 L1D next line prefetcher
CPU 0 L2C IP-based stride prefetcher
Initialize SRRIP state
Heartbeat CPU 0 instructions: 1000000 cycles: 447972 heartbeat IPC: 2.23228 cumulative IPC: 2.23228 (Simulation time: 0 hr 0 min 32 sec) 
Heartbeat CPU 0 instructions: 2000001 cycles: 951246 heartbeat IPC: 1.98699 cumulative IPC: 2.10251 (Simulation time: 0 hr 1 min 6 sec) 
Heartbeat CPU 0 instructions: 3000001 cycles: 1457930 heartbeat IPC: 1.97362 cumulative IPC: 2.05771 (Simulation time: 0 hr 1 min 42 sec) 
Heartbeat CPU 0 instructions: 4000000 cycles: 1928629 heartbeat IPC: 2.1245 cumulative IPC: 2.07401 (Simulation time: 0 hr 2 min 12 sec) 
Heartbeat CPU 0 instructions: 5000000 cycles: 2425931 heartbeat IPC: 2.01085 cumulative IPC: 2.06106 (Simulation time: 0 hr 2 min 45 sec) 
Heartbeat CPU 0 instructions: 6000001 cycles: 2887460 heartbeat IPC: 2.16671 cumulative IPC: 2.07795 (Simulation time: 0 hr 3 min 15 sec) 
Heartbeat CPU 0 instructions: 7000002 cycles: 3343251 heartbeat IPC: 2.19399 cumulative IPC: 2.09377 (Simulation time: 0 hr 3 min 51 sec) 
Heartbeat CPU 0 instructions: 8000000 cycles: 3812797 heartbeat IPC: 2.12971 cumulative IPC: 2.0982 (Simulation time: 0 hr 4 min 24 sec) 
Heartbeat CPU 0 instructions: 9000003 cycles: 4277995 heartbeat IPC: 2.14963 cumulative IPC: 2.10379 (Simulation time: 0 hr 4 min 55 sec) 
Heartbeat CPU 0 instructions: 10000000 cycles: 4746308 heartbeat IPC: 2.13532 cumulative IPC: 2.1069 (Simulation time: 0 hr 5 min 29 sec) 

Warmup complete CPU 0 instructions: 10000001 cycles: 4746309 (Simulation time: 0 hr 5 min 29 sec) 

Heartbeat CPU 0 instructions: 11000000 cycles: 6378882 heartbeat IPC: 0.61253 cumulative IPC: 0.612529 (Simulation time: 0 hr 5 min 58 sec) 
Heartbeat CPU 0 instructions: 12000000 cycles: 7928877 heartbeat IPC: 0.645163 cumulative IPC: 0.628423 (Simulation time: 0 hr 6 min 26 sec) 
Heartbeat CPU 0 instructions: 13000000 cycles: 9274285 heartbeat IPC: 0.743269 cumulative IPC: 0.662547 (Simulation time: 0 hr 6 min 58 sec) 
Heartbeat CPU 0 instructions: 14000003 cycles: 10431276 heartbeat IPC: 0.864314 cumulative IPC: 0.70361 (Simulation time: 0 hr 7 min 31 sec) 
Heartbeat CPU 0 instructions: 15000000 cycles: 11972329 heartbeat IPC: 0.648905 cumulative IPC: 0.691944 (Simulation time: 0 hr 8 min 1 sec) 
Heartbeat CPU 0 instructions: 16000000 cycles: 12981220 heartbeat IPC: 0.991187 cumulative IPC: 0.728605 (Simulation time: 0 hr 8 min 29 sec) 
Heartbeat CPU 0 instructions: 17000003 cycles: 13911929 heartbeat IPC: 1.07445 cumulative IPC: 0.763724 (Simulation time: 0 hr 8 min 56 sec) 
Heartbeat CPU 0 instructions: 18000001 cycles: 14839655 heartbeat IPC: 1.0779 cumulative IPC: 0.792601 (Simulation time: 0 hr 9 min 23 sec) 
Heartbeat CPU 0 instructions: 19000002 cycles: 15867343 heartbeat IPC: 0.973059 cumulative IPC: 0.809277 (Simulation time: 0 hr 9 min 53 sec) 
Heartbeat CPU 0 instructions: 20000000 cycles: 17119529 heartbeat IPC: 0.798602 cumulative IPC: 0.808197 (Simulation time: 0 hr 10 min 23 sec) 
Heartbeat CPU 0 instructions: 21000000 cycles: 18718484 heartbeat IPC: 0.625408 cumulative IPC: 0.787279 (Simulation time: 0 hr 10 min 52 sec) 
Heartbeat CPU 0 instructions: 22000000 cycles: 20233004 heartbeat IPC: 0.660275 cumulative IPC: 0.774859 (Simulation time: 0 hr 11 min 20 sec) 
Heartbeat CPU 0 instructions: 23000000 cycles: 21561116 heartbeat IPC: 0.752949 cumulative IPC: 0.773128 (Simulation time: 0 hr 11 min 51 sec) 
Heartbeat CPU 0 instructions: 24000000 cycles: 22862779 heartbeat IPC: 0.768248 cumulative IPC: 0.772777 (Simulation time: 0 hr 12 min 18 sec) 
Heartbeat CPU 0 instructions: 25000001 cycles: 24344729 heartbeat IPC: 0.674787 cumulative IPC: 0.765368 (Simulation time: 0 hr 12 min 46 sec) 
Heartbeat CPU 0 instructions: 26000002 cycles: 25374854 heartbeat IPC: 0.970757 cumulative IPC: 0.775624 (Simulation time: 0 hr 13 min 14 sec) 
Heartbeat CPU 0 instructions: 27000000 cycles: 26419481 heartbeat IPC: 0.957278 cumulative IPC: 0.78438 (Simulation time: 0 hr 13 min 43 sec) 
Heartbeat CPU 0 instructions: 28000000 cycles: 27890421 heartbeat IPC: 0.679837 cumulative IPC: 0.777736 (Simulation time: 0 hr 14 min 11 sec) 
Heartbeat CPU 0 instructions: 29000003 cycles: 28990286 heartbeat IPC: 0.909205 cumulative IPC: 0.7837 (Simulation time: 0 hr 14 min 36 sec) 
Heartbeat CPU 0 instructions: 30000000 cycles: 30456099 heartbeat IPC: 0.682213 cumulative IPC: 0.777914 (Simulation time: 0 hr 15 min 4 sec) 
Heartbeat CPU 0 instructions: 31000000 cycles: 31923008 heartbeat IPC: 0.681706 cumulative IPC: 0.772721 (Simulation time: 0 hr 15 min 33 sec) 
Heartbeat CPU 0 instructions: 32000000 cycles: 33630853 heartbeat IPC: 0.585533 cumulative IPC: 0.761653 (Simulation time: 0 hr 15 min 58 sec) 
Heartbeat CPU 0 instructions: 33000000 cycles: 34881397 heartbeat IPC: 0.799652 cumulative IPC: 0.76323 (Simulation time: 0 hr 16 min 29 sec) 
Heartbeat CPU 0 instructions: 34000001 cycles: 35912244 heartbeat IPC: 0.970077 cumulative IPC: 0.770072 (Simulation time: 0 hr 16 min 57 sec) 
Heartbeat CPU 0 instructions: 35000003 cycles: 36966545 heartbeat IPC: 0.948498 cumulative IPC: 0.77591 (Simulation time: 0 hr 17 min 25 sec) 
Heartbeat CPU 0 instructions: 36000000 cycles: 38075436 heartbeat IPC: 0.901799 cumulative IPC: 0.780098 (Simulation time: 0 hr 17 min 55 sec) 
Heartbeat CPU 0 instructions: 37000003 cycles: 39415900 heartbeat IPC: 0.746013 cumulative IPC: 0.778781 (Simulation time: 0 hr 18 min 22 sec) 
Heartbeat CPU 0 instructions: 38000001 cycles: 41122568 heartbeat IPC: 0.585936 cumulative IPC: 0.769733 (Simulation time: 0 hr 18 min 50 sec) 
Heartbeat CPU 0 instructions: 39000002 cycles: 42320530 heartbeat IPC: 0.834752 cumulative IPC: 0.771806 (Simulation time: 0 hr 19 min 18 sec) 
Heartbeat CPU 0 instructions: 40000000 cycles: 43500096 heartbeat IPC: 0.847768 cumulative IPC: 0.774118 (Simulation time: 0 hr 19 min 48 sec) 
Heartbeat CPU 0 instructions: 41000002 cycles: 45099841 heartbeat IPC: 0.625101 cumulative IPC: 0.76821 (Simulation time: 0 hr 20 min 17 sec) 
Heartbeat CPU 0 instructions: 42000000 cycles: 46469888 heartbeat IPC: 0.7299 cumulative IPC: 0.766952 (Simulation time: 0 hr 20 min 45 sec) 
Heartbeat CPU 0 instructions: 43000001 cycles: 47816109 heartbeat IPC: 0.742821 cumulative IPC: 0.766198 (Simulation time: 0 hr 21 min 17 sec) 
Heartbeat CPU 0 instructions: 44000000 cycles: 49057362 heartbeat IPC: 0.805637 cumulative IPC: 0.767303 (Simulation time: 0 hr 21 min 52 sec) 
Heartbeat CPU 0 instructions: 45000000 cycles: 50281597 heartbeat IPC: 0.816837 cumulative IPC: 0.768635 (Simulation time: 0 hr 22 min 24 sec) 
Heartbeat CPU 0 instructions: 46000000 cycles: 51467500 heartbeat IPC: 0.843239 cumulative IPC: 0.770528 (Simulation time: 0 hr 22 min 51 sec) 
Heartbeat CPU 0 instructions: 47000003 cycles: 52503731 heartbeat IPC: 0.965039 cumulative IPC: 0.774749 (Simulation time: 0 hr 23 min 22 sec) 
Heartbeat CPU 0 instructions: 48000000 cycles: 54292852 heartbeat IPC: 0.558932 cumulative IPC: 0.766956 (Simulation time: 0 hr 23 min 50 sec) 
Heartbeat CPU 0 instructions: 49000003 cycles: 55977986 heartbeat IPC: 0.593426 cumulative IPC: 0.761248 (Simulation time: 0 hr 24 min 14 sec) 
Heartbeat CPU 0 instructions: 50000000 cycles: 57341538 heartbeat IPC: 0.733377 cumulative IPC: 0.760525 (Simulation time: 0 hr 24 min 42 sec) 
Heartbeat CPU 0 instructions: 51000000 cycles: 58409308 heartbeat IPC: 0.936531 cumulative IPC: 0.764027 (Simulation time: 0 hr 25 min 13 sec) 
Heartbeat CPU 0 instructions: 52000000 cycles: 59465093 heartbeat IPC: 0.947163 cumulative IPC: 0.767561 (Simulation time: 0 hr 25 min 44 sec) 
Heartbeat CPU 0 instructions: 53000001 cycles: 60565040 heartbeat IPC: 0.909136 cumulative IPC: 0.770351 (Simulation time: 0 hr 26 min 16 sec) 
Heartbeat CPU 0 instructions: 54000001 cycles: 61613846 heartbeat IPC: 0.953465 cumulative IPC: 0.773728 (Simulation time: 0 hr 26 min 45 sec) 
Heartbeat CPU 0 instructions: 55000001 cycles: 62980325 heartbeat IPC: 0.731808 cumulative IPC: 0.772744 (Simulation time: 0 hr 27 min 14 sec) 
Heartbeat CPU 0 instructions: 56000000 cycles: 64281858 heartbeat IPC: 0.768324 cumulative IPC: 0.772648 (Simulation time: 0 hr 27 min 45 sec) 
Heartbeat CPU 0 instructions: 57000003 cycles: 65894874 heartbeat IPC: 0.619959 cumulative IPC: 0.76862 (Simulation time: 0 hr 28 min 19 sec) 
Heartbeat CPU 0 instructions: 58000001 cycles: 67565645 heartbeat IPC: 0.598525 cumulative IPC: 0.764096 (Simulation time: 0 hr 28 min 47 sec) 
Heartbeat CPU 0 instructions: 59000003 cycles: 68970353 heartbeat IPC: 0.711893 cumulative IPC: 0.762954 (Simulation time: 0 hr 29 min 16 sec) 
Heartbeat CPU 0 instructions: 60000000 cycles: 70799348 heartbeat IPC: 0.546747 cumulative IPC: 0.756967 (Simulation time: 0 hr 29 min 46 sec) 
Heartbeat CPU 0 instructions: 61000003 cycles: 72613466 heartbeat IPC: 0.551234 cumulative IPC: 0.751468 (Simulation time: 0 hr 30 min 14 sec) 
Heartbeat CPU 0 instructions: 62000002 cycles: 74206145 heartbeat IPC: 0.627872 cumulative IPC: 0.748634 (Simulation time: 0 hr 30 min 50 sec) 
Heartbeat CPU 0 instructions: 63000003 cycles: 75850501 heartbeat IPC: 0.608141 cumulative IPC: 0.745385 (Simulation time: 0 hr 31 min 22 sec) 
Heartbeat CPU 0 instructions: 64000000 cycles: 77483243 heartbeat IPC: 0.612465 cumulative IPC: 0.742401 (Simulation time: 0 hr 31 min 50 sec) 
Heartbeat CPU 0 instructions: 65000003 cycles: 78809991 heartbeat IPC: 0.753725 cumulative IPC: 0.742604 (Simulation time: 0 hr 32 min 17 sec) 
Heartbeat CPU 0 instructions: 66000000 cycles: 80400518 heartbeat IPC: 0.628721 cumulative IPC: 0.74021 (Simulation time: 0 hr 32 min 47 sec) 
Heartbeat CPU 0 instructions: 67000000 cycles: 81411888 heartbeat IPC: 0.988758 cumulative IPC: 0.743489 (Simulation time: 0 hr 33 min 20 sec) 
Heartbeat CPU 0 instructions: 68000000 cycles: 82880926 heartbeat IPC: 0.680718 cumulative IPC: 0.742309 (Simulation time: 0 hr 33 min 49 sec) 
Heartbeat CPU 0 instructions: 69000000 cycles: 84515659 heartbeat IPC: 0.611721 cumulative IPC: 0.739632 (Simulation time: 0 hr 34 min 15 sec) 
Heartbeat CPU 0 instructions: 70000002 cycles: 86267567 heartbeat IPC: 0.570807 cumulative IPC: 0.736004 (Simulation time: 0 hr 34 min 47 sec) 
Heartbeat CPU 0 instructions: 71000000 cycles: 87915230 heartbeat IPC: 0.606919 cumulative IPC: 0.733447 (Simulation time: 0 hr 35 min 16 sec) 
Heartbeat CPU 0 instructions: 72000000 cycles: 89334417 heartbeat IPC: 0.704629 cumulative IPC: 0.732964 (Simulation time: 0 hr 35 min 45 sec) 
Heartbeat CPU 0 instructions: 73000001 cycles: 90675923 heartbeat IPC: 0.745432 cumulative IPC: 0.733158 (Simulation time: 0 hr 36 min 14 sec) 
Heartbeat CPU 0 instructions: 74000000 cycles: 92184103 heartbeat IPC: 0.66305 cumulative IPC: 0.731949 (Simulation time: 0 hr 36 min 46 sec) 
Heartbeat CPU 0 instructions: 75000001 cycles: 93656164 heartbeat IPC: 0.67932 cumulative IPC: 0.731078 (Simulation time: 0 hr 37 min 17 sec) 
Heartbeat CPU 0 instructions: 76000000 cycles: 94851474 heartbeat IPC: 0.836602 cumulative IPC: 0.732477 (Simulation time: 0 hr 37 min 47 sec) 
Heartbeat CPU 0 instructions: 77000003 cycles: 96098776 heartbeat IPC: 0.801733 cumulative IPC: 0.733423 (Simulation time: 0 hr 38 min 16 sec) 
Heartbeat CPU 0 instructions: 78000000 cycles: 97498513 heartbeat IPC: 0.714418 cumulative IPC: 0.733136 (Simulation time: 0 hr 38 min 48 sec) 
Heartbeat CPU 0 instructions: 79000000 cycles: 99177557 heartbeat IPC: 0.595577 cumulative IPC: 0.73069 (Simulation time: 0 hr 39 min 21 sec) 
Heartbeat CPU 0 instructions: 80000000 cycles: 100639284 heartbeat IPC: 0.684122 cumulative IPC: 0.72998 (Simulation time: 0 hr 39 min 49 sec) 
Heartbeat CPU 0 instructions: 81000000 cycles: 102387385 heartbeat IPC: 0.572049 cumulative IPC: 0.727153 (Simulation time: 0 hr 40 min 17 sec) 
Heartbeat CPU 0 instructions: 82000002 cycles: 103995877 heartbeat IPC: 0.621702 cumulative IPC: 0.725444 (Simulation time: 0 hr 40 min 46 sec) 
Heartbeat CPU 0 instructions: 83000000 cycles: 105519971 heartbeat IPC: 0.656126 cumulative IPC: 0.724396 (Simulation time: 0 hr 41 min 18 sec) 
Heartbeat CPU 0 instructions: 84000000 cycles: 106565639 heartbeat IPC: 0.956326 cumulative IPC: 0.726777 (Simulation time: 0 hr 41 min 46 sec) 
Heartbeat CPU 0 instructions: 85000002 cycles: 107644740 heartbeat IPC: 0.926699 cumulative IPC: 0.728874 (Simulation time: 0 hr 42 min 16 sec) 
Heartbeat CPU 0 instructions: 86000002 cycles: 108646076 heartbeat IPC: 0.998666 cumulative IPC: 0.731474 (Simulation time: 0 hr 42 min 44 sec) 
Heartbeat CPU 0 instructions: 87000001 cycles: 109843168 heartbeat IPC: 0.835357 cumulative IPC: 0.732657 (Simulation time: 0 hr 43 min 20 sec) 
Heartbeat CPU 0 instructions: 88000000 cycles: 111207012 heartbeat IPC: 0.733221 cumulative IPC: 0.732665 (Simulation time: 0 hr 43 min 49 sec) 
Heartbeat CPU 0 instructions: 89000000 cycles: 113223741 heartbeat IPC: 0.495852 cumulative IPC: 0.728262 (Simulation time: 0 hr 44 min 23 sec) 
Heartbeat CPU 0 instructions: 90000002 cycles: 114794566 heartbeat IPC: 0.636609 cumulative IPC: 0.726954 (Simulation time: 0 hr 44 min 50 sec) 
Heartbeat CPU 0 instructions: 91000000 cycles: 116544546 heartbeat IPC: 0.571434 cumulative IPC: 0.724519 (Simulation time: 0 hr 45 min 18 sec) 
Heartbeat CPU 0 instructions: 92000000 cycles: 118099501 heartbeat IPC: 0.643105 cumulative IPC: 0.723403 (Simulation time: 0 hr 45 min 45 sec) 
Heartbeat CPU 0 instructions: 93000001 cycles: 119734329 heartbeat IPC: 0.611686 cumulative IPC: 0.721814 (Simulation time: 0 hr 46 min 17 sec) 
Heartbeat CPU 0 instructions: 94000000 cycles: 121590597 heartbeat IPC: 0.538715 cumulative IPC: 0.718906 (Simulation time: 0 hr 46 min 47 sec) 
Heartbeat CPU 0 instructions: 95000002 cycles: 123283004 heartbeat IPC: 0.590876 cumulative IPC: 0.717078 (Simulation time: 0 hr 47 min 16 sec) 
Heartbeat CPU 0 instructions: 96000000 cycles: 124939649 heartbeat IPC: 0.603628 cumulative IPC: 0.715514 (Simulation time: 0 hr 47 min 44 sec) 
Heartbeat CPU 0 instructions: 97000000 cycles: 126438969 heartbeat IPC: 0.666969 cumulative IPC: 0.714916 (Simulation time: 0 hr 48 min 13 sec) 
Heartbeat CPU 0 instructions: 98000000 cycles: 127764142 heartbeat IPC: 0.754618 cumulative IPC: 0.715343 (Simulation time: 0 hr 48 min 43 sec) 
Heartbeat CPU 0 instructions: 99000003 cycles: 129339965 heartbeat IPC: 0.634591 cumulative IPC: 0.714322 (Simulation time: 0 hr 49 min 16 sec) 
Heartbeat CPU 0 instructions: 100000000 cycles: 131038946 heartbeat IPC: 0.588586 cumulative IPC: 0.712631 (Simulation time: 0 hr 49 min 42 sec) 
Heartbeat CPU 0 instructions: 101000000 cycles: 132593057 heartbeat IPC: 0.643455 cumulative IPC: 0.71179 (Simulation time: 0 hr 50 min 7 sec) 
Heartbeat CPU 0 instructions: 102000001 cycles: 134359236 heartbeat IPC: 0.566195 cumulative IPC: 0.709806 (Simulation time: 0 hr 50 min 33 sec) 
Heartbeat CPU 0 instructions: 103000002 cycles: 136188186 heartbeat IPC: 0.546762 cumulative IPC: 0.707537 (Simulation time: 0 hr 51 min 5 sec) 
Heartbeat CPU 0 instructions: 104000000 cycles: 138037301 heartbeat IPC: 0.540798 cumulative IPC: 0.705224 (Simulation time: 0 hr 51 min 32 sec) 
Heartbeat CPU 0 instructions: 105000002 cycles: 139063915 heartbeat IPC: 0.974078 cumulative IPC: 0.707279 (Simulation time: 0 hr 51 min 58 sec) 
Heartbeat CPU 0 instructions: 106000000 cycles: 140708874 heartbeat IPC: 0.607917 cumulative IPC: 0.706077 (Simulation time: 0 hr 52 min 25 sec) 
Heartbeat CPU 0 instructions: 107000002 cycles: 142351801 heartbeat IPC: 0.608671 cumulative IPC: 0.704914 (Simulation time: 0 hr 52 min 52 sec) 
Heartbeat CPU 0 instructions: 108000000 cycles: 144215299 heartbeat IPC: 0.536624 cumulative IPC: 0.702665 (Simulation time: 0 hr 53 min 21 sec) 
Heartbeat CPU 0 instructions: 109000002 cycles: 145989537 heartbeat IPC: 0.563623 cumulative IPC: 0.700919 (Simulation time: 0 hr 53 min 47 sec) 
Heartbeat CPU 0 instructions: 110000000 cycles: 147288712 heartbeat IPC: 0.769718 cumulative IPC: 0.701546 (Simulation time: 0 hr 54 min 11 sec) 
Finished CPU 0 instructions: 100000003 cycles: 142542404 cummulative IPC: 0.701546 (Simulation time: 0 hr 54 min 11 sec) 

ChampSim completed all CPUs

Region of Interest Statistics

CPU 0 cummulative IPC: 0.701546 instructions: 100000003 cycles: 142542404
LLC TOTAL     ACCESS:    1572968  HIT:     961435  MISS:     611533
LLC LOAD      ACCESS:     430329  HIT:     327308  MISS:     103021
LLC RFO       ACCESS:     294164  HIT:      94162  MISS:     200002
LLC PREFETCH  ACCESS:     522500  HIT:     355015  MISS:     167485
LLC WRITEBACK ACCESS:     325975  HIT:     184950  MISS:     141025
Insertion Distribution: 
	LOAD 86152 0 27397 2954 
	RFO 4670 0 60856 151126 
	PREF 0 9127 63519 115913 
	WRITEBACK 0 0 0 148196 
Total Prefetch Downgrades: 23515
