
*** ChampSim Multicore Out-of-Order Simulator ***

Warmup Instructions: 10000000
Simulation Instructions: 100000000
Configuration: 2
Number of CPUs: 1
LLC sets: 2048
LLC ways: 16
Off-chip DRAM Channels: 1 Width: 64-bit Data Rate: 1600 MT/s

CPU 0 runs /datasets/cs240c-wi22-a00-public/data/Assignment2-gz/wrf_1228B.trace.gz
CPU 0 L1D next line prefetcher
CPU 0 L2C IP-based stride prefetcher
Initialize SRRIP state
Heartbeat CPU 0 instructions: 1000003 cycles: 591062 heartbeat IPC: 1.69187 cumulative IPC: 1.69187 (Simulation time: 0 hr 0 min 38 sec) 
Heartbeat CPU 0 instructions: 2000003 cycles: 1111220 heartbeat IPC: 1.92249 cumulative IPC: 1.79983 (Simulation time: 0 hr 1 min 12 sec) 
Heartbeat CPU 0 instructions: 3000000 cycles: 1729184 heartbeat IPC: 1.61821 cumulative IPC: 1.73492 (Simulation time: 0 hr 1 min 48 sec) 
Heartbeat CPU 0 instructions: 4000000 cycles: 2349834 heartbeat IPC: 1.61121 cumulative IPC: 1.70225 (Simulation time: 0 hr 2 min 26 sec) 
Heartbeat CPU 0 instructions: 5000000 cycles: 3052198 heartbeat IPC: 1.42376 cumulative IPC: 1.63816 (Simulation time: 0 hr 3 min 4 sec) 
Heartbeat CPU 0 instructions: 6000000 cycles: 3612290 heartbeat IPC: 1.78542 cumulative IPC: 1.661 (Simulation time: 0 hr 3 min 39 sec) 
Heartbeat CPU 0 instructions: 7000001 cycles: 4165061 heartbeat IPC: 1.80907 cumulative IPC: 1.68065 (Simulation time: 0 hr 4 min 17 sec) 
Heartbeat CPU 0 instructions: 8000000 cycles: 4716428 heartbeat IPC: 1.81367 cumulative IPC: 1.6962 (Simulation time: 0 hr 4 min 50 sec) 
Heartbeat CPU 0 instructions: 9000002 cycles: 5266615 heartbeat IPC: 1.81757 cumulative IPC: 1.70888 (Simulation time: 0 hr 5 min 24 sec) 
Heartbeat CPU 0 instructions: 10000001 cycles: 5819513 heartbeat IPC: 1.80865 cumulative IPC: 1.71836 (Simulation time: 0 hr 5 min 57 sec) 

Warmup complete CPU 0 instructions: 10000001 cycles: 5819513 (Simulation time: 0 hr 5 min 57 sec) 

Heartbeat CPU 0 instructions: 11000003 cycles: 6787572 heartbeat IPC: 1.033 cumulative IPC: 1.033 (Simulation time: 0 hr 6 min 34 sec) 
Heartbeat CPU 0 instructions: 12000000 cycles: 7787522 heartbeat IPC: 1.00005 cumulative IPC: 1.01626 (Simulation time: 0 hr 7 min 13 sec) 
Heartbeat CPU 0 instructions: 13000003 cycles: 8791590 heartbeat IPC: 0.995951 cumulative IPC: 1.0094 (Simulation time: 0 hr 7 min 48 sec) 
Heartbeat CPU 0 instructions: 14000002 cycles: 9767297 heartbeat IPC: 1.0249 cumulative IPC: 1.01323 (Simulation time: 0 hr 8 min 23 sec) 
Heartbeat CPU 0 instructions: 15000001 cycles: 10661733 heartbeat IPC: 1.11802 cumulative IPC: 1.03258 (Simulation time: 0 hr 8 min 52 sec) 
Heartbeat CPU 0 instructions: 16000000 cycles: 11556688 heartbeat IPC: 1.11737 cumulative IPC: 1.04581 (Simulation time: 0 hr 9 min 23 sec) 
Heartbeat CPU 0 instructions: 17000002 cycles: 12475721 heartbeat IPC: 1.0881 cumulative IPC: 1.05165 (Simulation time: 0 hr 9 min 53 sec) 
Heartbeat CPU 0 instructions: 18000003 cycles: 13402050 heartbeat IPC: 1.07953 cumulative IPC: 1.05506 (Simulation time: 0 hr 10 min 25 sec) 
Heartbeat CPU 0 instructions: 19000000 cycles: 14311183 heartbeat IPC: 1.09995 cumulative IPC: 1.05986 (Simulation time: 0 hr 10 min 55 sec) 
Heartbeat CPU 0 instructions: 20000000 cycles: 15219833 heartbeat IPC: 1.10053 cumulative IPC: 1.06379 (Simulation time: 0 hr 11 min 25 sec) 
Heartbeat CPU 0 instructions: 21000000 cycles: 16141099 heartbeat IPC: 1.08546 cumulative IPC: 1.06573 (Simulation time: 0 hr 11 min 56 sec) 
Heartbeat CPU 0 instructions: 22000000 cycles: 17081630 heartbeat IPC: 1.06323 cumulative IPC: 1.06552 (Simulation time: 0 hr 12 min 26 sec) 
Heartbeat CPU 0 instructions: 23000003 cycles: 18083207 heartbeat IPC: 0.998428 cumulative IPC: 1.06004 (Simulation time: 0 hr 12 min 59 sec) 
Heartbeat CPU 0 instructions: 24000000 cycles: 19086772 heartbeat IPC: 0.996445 cumulative IPC: 1.05523 (Simulation time: 0 hr 13 min 34 sec) 
Heartbeat CPU 0 instructions: 25000000 cycles: 20131302 heartbeat IPC: 0.957368 cumulative IPC: 1.04809 (Simulation time: 0 hr 14 min 10 sec) 
Heartbeat CPU 0 instructions: 26000003 cycles: 21183572 heartbeat IPC: 0.950329 cumulative IPC: 1.04139 (Simulation time: 0 hr 14 min 45 sec) 
Heartbeat CPU 0 instructions: 27000003 cycles: 22246882 heartbeat IPC: 0.940459 cumulative IPC: 1.03486 (Simulation time: 0 hr 15 min 19 sec) 
Heartbeat CPU 0 instructions: 28000000 cycles: 23331783 heartbeat IPC: 0.92174 cumulative IPC: 1.02785 (Simulation time: 0 hr 15 min 55 sec) 
Heartbeat CPU 0 instructions: 29000003 cycles: 24902973 heartbeat IPC: 0.636462 cumulative IPC: 0.995627 (Simulation time: 0 hr 16 min 35 sec) 
Heartbeat CPU 0 instructions: 30000000 cycles: 26668242 heartbeat IPC: 0.566484 cumulative IPC: 0.959291 (Simulation time: 0 hr 17 min 14 sec) 
Heartbeat CPU 0 instructions: 31000003 cycles: 28564881 heartbeat IPC: 0.52725 cumulative IPC: 0.923265 (Simulation time: 0 hr 17 min 52 sec) 
Heartbeat CPU 0 instructions: 32000000 cycles: 30573483 heartbeat IPC: 0.497857 cumulative IPC: 0.888746 (Simulation time: 0 hr 18 min 32 sec) 
Heartbeat CPU 0 instructions: 33000001 cycles: 32004416 heartbeat IPC: 0.698845 cumulative IPC: 0.878369 (Simulation time: 0 hr 19 min 10 sec) 
Heartbeat CPU 0 instructions: 34000002 cycles: 33517308 heartbeat IPC: 0.660986 cumulative IPC: 0.866495 (Simulation time: 0 hr 19 min 52 sec) 
Heartbeat CPU 0 instructions: 35000001 cycles: 35560318 heartbeat IPC: 0.489473 cumulative IPC: 0.840596 (Simulation time: 0 hr 20 min 33 sec) 
Heartbeat CPU 0 instructions: 36000000 cycles: 36545970 heartbeat IPC: 1.01456 cumulative IPC: 0.846176 (Simulation time: 0 hr 21 min 10 sec) 
Heartbeat CPU 0 instructions: 37000001 cycles: 37506776 heartbeat IPC: 1.04079 cumulative IPC: 0.852077 (Simulation time: 0 hr 21 min 45 sec) 
Heartbeat CPU 0 instructions: 38000003 cycles: 38420869 heartbeat IPC: 1.09398 cumulative IPC: 0.85886 (Simulation time: 0 hr 22 min 20 sec) 
Heartbeat CPU 0 instructions: 39000002 cycles: 39345033 heartbeat IPC: 1.08206 cumulative IPC: 0.865013 (Simulation time: 0 hr 22 min 53 sec) 
Heartbeat CPU 0 instructions: 40000000 cycles: 40272847 heartbeat IPC: 1.0778 cumulative IPC: 0.870743 (Simulation time: 0 hr 23 min 28 sec) 
Heartbeat CPU 0 instructions: 41000000 cycles: 41235643 heartbeat IPC: 1.03864 cumulative IPC: 0.875307 (Simulation time: 0 hr 24 min 2 sec) 
Heartbeat CPU 0 instructions: 42000002 cycles: 42202793 heartbeat IPC: 1.03397 cumulative IPC: 0.879525 (Simulation time: 0 hr 24 min 35 sec) 
Heartbeat CPU 0 instructions: 43000002 cycles: 43190714 heartbeat IPC: 1.01223 cumulative IPC: 0.883033 (Simulation time: 0 hr 25 min 8 sec) 
Heartbeat CPU 0 instructions: 44000000 cycles: 44089085 heartbeat IPC: 1.11312 cumulative IPC: 0.888434 (Simulation time: 0 hr 25 min 39 sec) 
Heartbeat CPU 0 instructions: 45000000 cycles: 44966728 heartbeat IPC: 1.13942 cumulative IPC: 0.894061 (Simulation time: 0 hr 26 min 9 sec) 
Heartbeat CPU 0 instructions: 46000002 cycles: 45843639 heartbeat IPC: 1.14037 cumulative IPC: 0.899458 (Simulation time: 0 hr 26 min 39 sec) 
Heartbeat CPU 0 instructions: 47000001 cycles: 46693051 heartbeat IPC: 1.17728 cumulative IPC: 0.905231 (Simulation time: 0 hr 27 min 9 sec) 
Heartbeat CPU 0 instructions: 48000000 cycles: 47537668 heartbeat IPC: 1.18397 cumulative IPC: 0.910874 (Simulation time: 0 hr 27 min 38 sec) 
Heartbeat CPU 0 instructions: 49000001 cycles: 48423148 heartbeat IPC: 1.12933 cumulative IPC: 0.915415 (Simulation time: 0 hr 28 min 9 sec) 
Heartbeat CPU 0 instructions: 50000003 cycles: 49333038 heartbeat IPC: 1.09904 cumulative IPC: 0.919254 (Simulation time: 0 hr 28 min 41 sec) 
Heartbeat CPU 0 instructions: 51000001 cycles: 50242512 heartbeat IPC: 1.09953 cumulative IPC: 0.922945 (Simulation time: 0 hr 29 min 11 sec) 
Heartbeat CPU 0 instructions: 52000000 cycles: 51213181 heartbeat IPC: 1.03022 cumulative IPC: 0.925239 (Simulation time: 0 hr 29 min 44 sec) 
Heartbeat CPU 0 instructions: 53000002 cycles: 52193051 heartbeat IPC: 1.02055 cumulative IPC: 0.927253 (Simulation time: 0 hr 30 min 17 sec) 
Heartbeat CPU 0 instructions: 54000001 cycles: 53181130 heartbeat IPC: 1.01206 cumulative IPC: 0.929022 (Simulation time: 0 hr 30 min 50 sec) 
Heartbeat CPU 0 instructions: 55000003 cycles: 54134399 heartbeat IPC: 1.04902 cumulative IPC: 0.93139 (Simulation time: 0 hr 31 min 24 sec) 
Heartbeat CPU 0 instructions: 56000000 cycles: 55118560 heartbeat IPC: 1.01609 cumulative IPC: 0.933081 (Simulation time: 0 hr 31 min 57 sec) 
Heartbeat CPU 0 instructions: 57000001 cycles: 56129530 heartbeat IPC: 0.98915 cumulative IPC: 0.934208 (Simulation time: 0 hr 32 min 29 sec) 
Heartbeat CPU 0 instructions: 58000000 cycles: 57165609 heartbeat IPC: 0.965176 cumulative IPC: 0.934833 (Simulation time: 0 hr 33 min 3 sec) 
Heartbeat CPU 0 instructions: 59000001 cycles: 59231497 heartbeat IPC: 0.484054 cumulative IPC: 0.917397 (Simulation time: 0 hr 33 min 47 sec) 
Heartbeat CPU 0 instructions: 60000000 cycles: 60999224 heartbeat IPC: 0.565698 cumulative IPC: 0.90613 (Simulation time: 0 hr 34 min 24 sec) 
Heartbeat CPU 0 instructions: 61000000 cycles: 62994717 heartbeat IPC: 0.501129 cumulative IPC: 0.891995 (Simulation time: 0 hr 35 min 1 sec) 
Heartbeat CPU 0 instructions: 62000000 cycles: 64678755 heartbeat IPC: 0.593811 cumulative IPC: 0.883464 (Simulation time: 0 hr 35 min 41 sec) 
Heartbeat CPU 0 instructions: 63000001 cycles: 66155328 heartbeat IPC: 0.677245 cumulative IPC: 0.878417 (Simulation time: 0 hr 36 min 21 sec) 
Heartbeat CPU 0 instructions: 64000000 cycles: 67703290 heartbeat IPC: 0.64601 cumulative IPC: 0.872603 (Simulation time: 0 hr 36 min 58 sec) 
Heartbeat CPU 0 instructions: 65000003 cycles: 69198117 heartbeat IPC: 0.668976 cumulative IPC: 0.867801 (Simulation time: 0 hr 37 min 36 sec) 
Heartbeat CPU 0 instructions: 66000000 cycles: 70693713 heartbeat IPC: 0.668628 cumulative IPC: 0.863209 (Simulation time: 0 hr 38 min 15 sec) 
Heartbeat CPU 0 instructions: 67000000 cycles: 72188233 heartbeat IPC: 0.669111 cumulative IPC: 0.858838 (Simulation time: 0 hr 38 min 58 sec) 
Heartbeat CPU 0 instructions: 68000000 cycles: 73682684 heartbeat IPC: 0.669142 cumulative IPC: 0.854661 (Simulation time: 0 hr 39 min 37 sec) 
Heartbeat CPU 0 instructions: 69000000 cycles: 75189929 heartbeat IPC: 0.663462 cumulative IPC: 0.850507 (Simulation time: 0 hr 40 min 15 sec) 
Heartbeat CPU 0 instructions: 70000001 cycles: 76686509 heartbeat IPC: 0.668191 cumulative IPC: 0.846656 (Simulation time: 0 hr 40 min 54 sec) 
Heartbeat CPU 0 instructions: 71000001 cycles: 78180575 heartbeat IPC: 0.669315 cumulative IPC: 0.842995 (Simulation time: 0 hr 41 min 34 sec) 
Heartbeat CPU 0 instructions: 72000000 cycles: 79663979 heartbeat IPC: 0.674125 cumulative IPC: 0.839603 (Simulation time: 0 hr 42 min 15 sec) 
Heartbeat CPU 0 instructions: 73000003 cycles: 81151687 heartbeat IPC: 0.672177 cumulative IPC: 0.836296 (Simulation time: 0 hr 42 min 55 sec) 
Heartbeat CPU 0 instructions: 74000000 cycles: 82649214 heartbeat IPC: 0.667766 cumulative IPC: 0.833011 (Simulation time: 0 hr 43 min 35 sec) 
Heartbeat CPU 0 instructions: 75000001 cycles: 84143185 heartbeat IPC: 0.669358 cumulative IPC: 0.82989 (Simulation time: 0 hr 44 min 17 sec) 
Heartbeat CPU 0 instructions: 76000000 cycles: 85639619 heartbeat IPC: 0.668255 cumulative IPC: 0.826859 (Simulation time: 0 hr 44 min 58 sec) 
Heartbeat CPU 0 instructions: 77000003 cycles: 87133415 heartbeat IPC: 0.669437 cumulative IPC: 0.823967 (Simulation time: 0 hr 45 min 39 sec) 
Heartbeat CPU 0 instructions: 78000001 cycles: 88628106 heartbeat IPC: 0.669033 cumulative IPC: 0.821171 (Simulation time: 0 hr 46 min 17 sec) 
Heartbeat CPU 0 instructions: 79000000 cycles: 90124536 heartbeat IPC: 0.668256 cumulative IPC: 0.818457 (Simulation time: 0 hr 46 min 57 sec) 
Heartbeat CPU 0 instructions: 80000000 cycles: 91614919 heartbeat IPC: 0.670968 cumulative IPC: 0.815894 (Simulation time: 0 hr 47 min 39 sec) 
Heartbeat CPU 0 instructions: 81000001 cycles: 93098851 heartbeat IPC: 0.673886 cumulative IPC: 0.81348 (Simulation time: 0 hr 48 min 19 sec) 
Heartbeat CPU 0 instructions: 82000000 cycles: 94581816 heartbeat IPC: 0.674324 cumulative IPC: 0.811155 (Simulation time: 0 hr 48 min 57 sec) 
Heartbeat CPU 0 instructions: 83000000 cycles: 96065294 heartbeat IPC: 0.674092 cumulative IPC: 0.808902 (Simulation time: 0 hr 49 min 36 sec) 
Heartbeat CPU 0 instructions: 84000000 cycles: 97560199 heartbeat IPC: 0.668939 cumulative IPC: 0.806621 (Simulation time: 0 hr 50 min 20 sec) 
Heartbeat CPU 0 instructions: 85000000 cycles: 99055080 heartbeat IPC: 0.66895 cumulative IPC: 0.804414 (Simulation time: 0 hr 50 min 54 sec) 
Heartbeat CPU 0 instructions: 86000000 cycles: 100549171 heartbeat IPC: 0.669303 cumulative IPC: 0.802283 (Simulation time: 0 hr 51 min 30 sec) 
Heartbeat CPU 0 instructions: 87000000 cycles: 102044025 heartbeat IPC: 0.668962 cumulative IPC: 0.800212 (Simulation time: 0 hr 52 min 10 sec) 
Heartbeat CPU 0 instructions: 88000000 cycles: 103539305 heartbeat IPC: 0.668771 cumulative IPC: 0.798201 (Simulation time: 0 hr 52 min 50 sec) 
Heartbeat CPU 0 instructions: 89000002 cycles: 105034933 heartbeat IPC: 0.668617 cumulative IPC: 0.796247 (Simulation time: 0 hr 53 min 25 sec) 
Heartbeat CPU 0 instructions: 90000000 cycles: 106519271 heartbeat IPC: 0.6737 cumulative IPC: 0.794441 (Simulation time: 0 hr 54 min 1 sec) 
Heartbeat CPU 0 instructions: 91000000 cycles: 108003016 heartbeat IPC: 0.67397 cumulative IPC: 0.792692 (Simulation time: 0 hr 54 min 37 sec) 
Heartbeat CPU 0 instructions: 92000000 cycles: 109486856 heartbeat IPC: 0.673927 cumulative IPC: 0.790992 (Simulation time: 0 hr 55 min 9 sec) 
Heartbeat CPU 0 instructions: 93000000 cycles: 110976598 heartbeat IPC: 0.671257 cumulative IPC: 0.789295 (Simulation time: 0 hr 55 min 40 sec) 
Heartbeat CPU 0 instructions: 94000003 cycles: 112470452 heartbeat IPC: 0.669411 cumulative IPC: 0.787616 (Simulation time: 0 hr 56 min 10 sec) 
Heartbeat CPU 0 instructions: 95000000 cycles: 113966255 heartbeat IPC: 0.668535 cumulative IPC: 0.785969 (Simulation time: 0 hr 56 min 38 sec) 
Heartbeat CPU 0 instructions: 96000000 cycles: 115460204 heartbeat IPC: 0.669367 cumulative IPC: 0.78438 (Simulation time: 0 hr 57 min 4 sec) 
Heartbeat CPU 0 instructions: 97000001 cycles: 116955753 heartbeat IPC: 0.668651 cumulative IPC: 0.782823 (Simulation time: 0 hr 57 min 32 sec) 
Heartbeat CPU 0 instructions: 98000003 cycles: 118451110 heartbeat IPC: 0.668738 cumulative IPC: 0.781308 (Simulation time: 0 hr 57 min 57 sec) 
Heartbeat CPU 0 instructions: 99000000 cycles: 119940212 heartbeat IPC: 0.671544 cumulative IPC: 0.779876 (Simulation time: 0 hr 58 min 21 sec) 
Heartbeat CPU 0 instructions: 100000000 cycles: 121423604 heartbeat IPC: 0.674131 cumulative IPC: 0.778519 (Simulation time: 0 hr 58 min 44 sec) 
Heartbeat CPU 0 instructions: 101000000 cycles: 122906814 heartbeat IPC: 0.674213 cumulative IPC: 0.777198 (Simulation time: 0 hr 59 min 8 sec) 
Heartbeat CPU 0 instructions: 102000003 cycles: 124390400 heartbeat IPC: 0.674044 cumulative IPC: 0.775907 (Simulation time: 0 hr 59 min 29 sec) 
Heartbeat CPU 0 instructions: 103000003 cycles: 125886659 heartbeat IPC: 0.668333 cumulative IPC: 0.774567 (Simulation time: 0 hr 59 min 52 sec) 
Heartbeat CPU 0 instructions: 104000000 cycles: 127381196 heartbeat IPC: 0.669102 cumulative IPC: 0.77327 (Simulation time: 1 hr 0 min 14 sec) 
Heartbeat CPU 0 instructions: 105000000 cycles: 128876002 heartbeat IPC: 0.668983 cumulative IPC: 0.772003 (Simulation time: 1 hr 0 min 36 sec) 
Heartbeat CPU 0 instructions: 106000000 cycles: 130371063 heartbeat IPC: 0.668869 cumulative IPC: 0.770765 (Simulation time: 1 hr 0 min 56 sec) 
Heartbeat CPU 0 instructions: 107000000 cycles: 131866909 heartbeat IPC: 0.668518 cumulative IPC: 0.769552 (Simulation time: 1 hr 1 min 16 sec) 
Heartbeat CPU 0 instructions: 108000000 cycles: 133362488 heartbeat IPC: 0.668637 cumulative IPC: 0.768368 (Simulation time: 1 hr 1 min 35 sec) 
Heartbeat CPU 0 instructions: 109000003 cycles: 134845347 heartbeat IPC: 0.674375 cumulative IPC: 0.767288 (Simulation time: 1 hr 1 min 53 sec) 
Heartbeat CPU 0 instructions: 110000001 cycles: 136328543 heartbeat IPC: 0.674218 cumulative IPC: 0.766231 (Simulation time: 1 hr 2 min 10 sec) 
Finished CPU 0 instructions: 100000000 cycles: 130509030 cummulative IPC: 0.76623 (Simulation time: 1 hr 2 min 10 sec) 

ChampSim completed all CPUs

Region of Interest Statistics

CPU 0 cummulative IPC: 0.76623 instructions: 100000000 cycles: 130509030
LLC TOTAL     ACCESS:    1495359  HIT:     300821  MISS:    1194538
LLC LOAD      ACCESS:      88341  HIT:      14153  MISS:      74188
LLC RFO       ACCESS:     219210  HIT:      16815  MISS:     202395
LLC PREFETCH  ACCESS:     751665  HIT:      93501  MISS:     658164
LLC WRITEBACK ACCESS:     436143  HIT:     176352  MISS:     259791
Insertion Distribution: 
	LOAD 887 0 10713 67552 
	RFO 34003 0 51997 191498 
	PREF 0 0 74886 759076 
	WRITEBACK 0 0 0 339686 
Total Prefetch Downgrades: 1148
