
*** ChampSim Multicore Out-of-Order Simulator ***

Warmup Instructions: 10000000
Simulation Instructions: 100000000
Configuration: 2
Number of CPUs: 1
LLC sets: 2048
LLC ways: 16
Off-chip DRAM Channels: 1 Width: 64-bit Data Rate: 1600 MT/s

CPU 0 runs /datasets/cs240c-wi22-a00-public/data/Assignment2-gz/sphinx3_883B.trace.gz
CPU 0 L1D next line prefetcher
CPU 0 L2C IP-based stride prefetcher
Initialize SRRIP state
Heartbeat CPU 0 instructions: 1000003 cycles: 414395 heartbeat IPC: 2.41316 cumulative IPC: 2.41316 (Simulation time: 0 hr 0 min 32 sec) 
Heartbeat CPU 0 instructions: 2000000 cycles: 823963 heartbeat IPC: 2.44159 cumulative IPC: 2.42729 (Simulation time: 0 hr 1 min 2 sec) 
Heartbeat CPU 0 instructions: 3000003 cycles: 1298752 heartbeat IPC: 2.1062 cumulative IPC: 2.30991 (Simulation time: 0 hr 1 min 31 sec) 
Heartbeat CPU 0 instructions: 4000000 cycles: 1637643 heartbeat IPC: 2.95079 cumulative IPC: 2.44253 (Simulation time: 0 hr 1 min 57 sec) 
Heartbeat CPU 0 instructions: 5000000 cycles: 1992318 heartbeat IPC: 2.81948 cumulative IPC: 2.50964 (Simulation time: 0 hr 2 min 25 sec) 
Heartbeat CPU 0 instructions: 6000003 cycles: 2406750 heartbeat IPC: 2.41295 cumulative IPC: 2.49299 (Simulation time: 0 hr 2 min 55 sec) 
Heartbeat CPU 0 instructions: 7000002 cycles: 2815548 heartbeat IPC: 2.44619 cumulative IPC: 2.4862 (Simulation time: 0 hr 3 min 24 sec) 
Heartbeat CPU 0 instructions: 8000000 cycles: 3291672 heartbeat IPC: 2.10029 cumulative IPC: 2.43038 (Simulation time: 0 hr 3 min 51 sec) 
Heartbeat CPU 0 instructions: 9000001 cycles: 3630669 heartbeat IPC: 2.94988 cumulative IPC: 2.47888 (Simulation time: 0 hr 4 min 17 sec) 
Heartbeat CPU 0 instructions: 10000000 cycles: 3984761 heartbeat IPC: 2.82412 cumulative IPC: 2.50956 (Simulation time: 0 hr 4 min 41 sec) 

Warmup complete CPU 0 instructions: 10000004 cycles: 3984762 (Simulation time: 0 hr 4 min 41 sec) 

Heartbeat CPU 0 instructions: 11000002 cycles: 5728037 heartbeat IPC: 0.573634 cumulative IPC: 0.573632 (Simulation time: 0 hr 5 min 13 sec) 
Heartbeat CPU 0 instructions: 12000000 cycles: 7409575 heartbeat IPC: 0.594692 cumulative IPC: 0.583972 (Simulation time: 0 hr 5 min 47 sec) 
Heartbeat CPU 0 instructions: 13000001 cycles: 8672018 heartbeat IPC: 0.792116 cumulative IPC: 0.640033 (Simulation time: 0 hr 6 min 17 sec) 
Heartbeat CPU 0 instructions: 14000002 cycles: 9465914 heartbeat IPC: 1.25961 cumulative IPC: 0.729773 (Simulation time: 0 hr 6 min 47 sec) 
Heartbeat CPU 0 instructions: 15000000 cycles: 10440240 heartbeat IPC: 1.02635 cumulative IPC: 0.774535 (Simulation time: 0 hr 7 min 18 sec) 
Heartbeat CPU 0 instructions: 16000000 cycles: 12178251 heartbeat IPC: 0.57537 cumulative IPC: 0.732288 (Simulation time: 0 hr 7 min 48 sec) 
Heartbeat CPU 0 instructions: 17000000 cycles: 13868009 heartbeat IPC: 0.591801 cumulative IPC: 0.708269 (Simulation time: 0 hr 8 min 18 sec) 
Heartbeat CPU 0 instructions: 18000002 cycles: 15247309 heartbeat IPC: 0.725007 cumulative IPC: 0.710319 (Simulation time: 0 hr 8 min 46 sec) 
Heartbeat CPU 0 instructions: 19000003 cycles: 16070036 heartbeat IPC: 1.21547 cumulative IPC: 0.744708 (Simulation time: 0 hr 9 min 15 sec) 
Heartbeat CPU 0 instructions: 20000000 cycles: 16928205 heartbeat IPC: 1.16527 cumulative IPC: 0.772592 (Simulation time: 0 hr 9 min 44 sec) 
Heartbeat CPU 0 instructions: 21000000 cycles: 18624656 heartbeat IPC: 0.589466 cumulative IPC: 0.751371 (Simulation time: 0 hr 10 min 15 sec) 
Heartbeat CPU 0 instructions: 22000003 cycles: 20357015 heartbeat IPC: 0.577249 cumulative IPC: 0.732947 (Simulation time: 0 hr 10 min 47 sec) 
Heartbeat CPU 0 instructions: 23000001 cycles: 21994226 heartbeat IPC: 0.610794 cumulative IPC: 0.721843 (Simulation time: 0 hr 11 min 18 sec) 
Heartbeat CPU 0 instructions: 24000000 cycles: 22912181 heartbeat IPC: 1.08938 cumulative IPC: 0.739667 (Simulation time: 0 hr 11 min 46 sec) 
Heartbeat CPU 0 instructions: 25000003 cycles: 23742480 heartbeat IPC: 1.20439 cumulative IPC: 0.759197 (Simulation time: 0 hr 12 min 15 sec) 
Heartbeat CPU 0 instructions: 26000001 cycles: 25086160 heartbeat IPC: 0.744223 cumulative IPC: 0.758243 (Simulation time: 0 hr 12 min 45 sec) 
Heartbeat CPU 0 instructions: 27000001 cycles: 26829329 heartbeat IPC: 0.573668 cumulative IPC: 0.744159 (Simulation time: 0 hr 13 min 17 sec) 
Heartbeat CPU 0 instructions: 28000000 cycles: 28522126 heartbeat IPC: 0.590738 cumulative IPC: 0.733575 (Simulation time: 0 hr 13 min 53 sec) 
Heartbeat CPU 0 instructions: 29000000 cycles: 29614382 heartbeat IPC: 0.915536 cumulative IPC: 0.74133 (Simulation time: 0 hr 14 min 23 sec) 
Heartbeat CPU 0 instructions: 30000002 cycles: 30438929 heartbeat IPC: 1.21279 cumulative IPC: 0.756024 (Simulation time: 0 hr 14 min 53 sec) 
Heartbeat CPU 0 instructions: 31000003 cycles: 31632459 heartbeat IPC: 0.837852 cumulative IPC: 0.759557 (Simulation time: 0 hr 15 min 29 sec) 
Heartbeat CPU 0 instructions: 32000000 cycles: 33375338 heartbeat IPC: 0.573762 cumulative IPC: 0.748539 (Simulation time: 0 hr 16 min 0 sec) 
Heartbeat CPU 0 instructions: 33000000 cycles: 35014941 heartbeat IPC: 0.609904 cumulative IPC: 0.741214 (Simulation time: 0 hr 16 min 30 sec) 
Heartbeat CPU 0 instructions: 34000000 cycles: 36210652 heartbeat IPC: 0.836322 cumulative IPC: 0.744743 (Simulation time: 0 hr 16 min 58 sec) 
Heartbeat CPU 0 instructions: 35000003 cycles: 37038233 heartbeat IPC: 1.20834 cumulative IPC: 0.75635 (Simulation time: 0 hr 17 min 26 sec) 
Heartbeat CPU 0 instructions: 36000000 cycles: 38179423 heartbeat IPC: 0.876276 cumulative IPC: 0.760352 (Simulation time: 0 hr 17 min 55 sec) 
Heartbeat CPU 0 instructions: 37000001 cycles: 39937926 heartbeat IPC: 0.568666 cumulative IPC: 0.750977 (Simulation time: 0 hr 18 min 25 sec) 
Heartbeat CPU 0 instructions: 38000000 cycles: 41587700 heartbeat IPC: 0.606143 cumulative IPC: 0.744623 (Simulation time: 0 hr 18 min 55 sec) 
Heartbeat CPU 0 instructions: 39000003 cycles: 42775886 heartbeat IPC: 0.841622 cumulative IPC: 0.747594 (Simulation time: 0 hr 19 min 25 sec) 
Heartbeat CPU 0 instructions: 40000000 cycles: 43604857 heartbeat IPC: 1.20631 cumulative IPC: 0.757191 (Simulation time: 0 hr 19 min 53 sec) 
Heartbeat CPU 0 instructions: 41000003 cycles: 44729719 heartbeat IPC: 0.889001 cumulative IPC: 0.76083 (Simulation time: 0 hr 20 min 23 sec) 
Heartbeat CPU 0 instructions: 42000000 cycles: 46502468 heartbeat IPC: 0.564094 cumulative IPC: 0.752628 (Simulation time: 0 hr 20 min 55 sec) 
Heartbeat CPU 0 instructions: 43000003 cycles: 48184828 heartbeat IPC: 0.594405 cumulative IPC: 0.746605 (Simulation time: 0 hr 21 min 27 sec) 
Heartbeat CPU 0 instructions: 44000000 cycles: 49308496 heartbeat IPC: 0.88994 cumulative IPC: 0.750159 (Simulation time: 0 hr 21 min 56 sec) 
Heartbeat CPU 0 instructions: 45000002 cycles: 50132001 heartbeat IPC: 1.21432 cumulative IPC: 0.758442 (Simulation time: 0 hr 22 min 25 sec) 
Heartbeat CPU 0 instructions: 46000001 cycles: 51296939 heartbeat IPC: 0.858414 cumulative IPC: 0.760903 (Simulation time: 0 hr 22 min 55 sec) 
Heartbeat CPU 0 instructions: 47000002 cycles: 53049843 heartbeat IPC: 0.570482 cumulative IPC: 0.7541 (Simulation time: 0 hr 23 min 30 sec) 
Heartbeat CPU 0 instructions: 48000000 cycles: 54729579 heartbeat IPC: 0.59533 cumulative IPC: 0.748845 (Simulation time: 0 hr 24 min 1 sec) 
Heartbeat CPU 0 instructions: 49000001 cycles: 55750288 heartbeat IPC: 0.979712 cumulative IPC: 0.753397 (Simulation time: 0 hr 24 min 29 sec) 
Heartbeat CPU 0 instructions: 50000000 cycles: 56581316 heartbeat IPC: 1.20333 cumulative IPC: 0.760506 (Simulation time: 0 hr 24 min 57 sec) 
Heartbeat CPU 0 instructions: 51000003 cycles: 57790574 heartbeat IPC: 0.826956 cumulative IPC: 0.761999 (Simulation time: 0 hr 25 min 27 sec) 
Heartbeat CPU 0 instructions: 52000000 cycles: 59590941 heartbeat IPC: 0.555441 cumulative IPC: 0.755312 (Simulation time: 0 hr 26 min 1 sec) 
Heartbeat CPU 0 instructions: 53000000 cycles: 61482789 heartbeat IPC: 0.528584 cumulative IPC: 0.747852 (Simulation time: 0 hr 26 min 32 sec) 
Heartbeat CPU 0 instructions: 54000003 cycles: 62823556 heartbeat IPC: 0.745844 cumulative IPC: 0.747806 (Simulation time: 0 hr 27 min 1 sec) 
Heartbeat CPU 0 instructions: 55000003 cycles: 63757275 heartbeat IPC: 1.07099 cumulative IPC: 0.752854 (Simulation time: 0 hr 27 min 28 sec) 
Heartbeat CPU 0 instructions: 56000000 cycles: 64611959 heartbeat IPC: 1.17002 cumulative IPC: 0.758735 (Simulation time: 0 hr 27 min 59 sec) 
Heartbeat CPU 0 instructions: 57000002 cycles: 65831006 heartbeat IPC: 0.820315 cumulative IPC: 0.759949 (Simulation time: 0 hr 28 min 30 sec) 
Heartbeat CPU 0 instructions: 58000001 cycles: 66924097 heartbeat IPC: 0.914836 cumulative IPC: 0.762639 (Simulation time: 0 hr 28 min 59 sec) 
Heartbeat CPU 0 instructions: 59000003 cycles: 67768641 heartbeat IPC: 1.18407 cumulative IPC: 0.768219 (Simulation time: 0 hr 29 min 27 sec) 
Heartbeat CPU 0 instructions: 60000000 cycles: 68685520 heartbeat IPC: 1.09065 cumulative IPC: 0.772788 (Simulation time: 0 hr 29 min 55 sec) 
Heartbeat CPU 0 instructions: 61000001 cycles: 70033812 heartbeat IPC: 0.74168 cumulative IPC: 0.772153 (Simulation time: 0 hr 30 min 24 sec) 
Heartbeat CPU 0 instructions: 62000001 cycles: 70881098 heartbeat IPC: 1.18024 cumulative IPC: 0.777322 (Simulation time: 0 hr 30 min 53 sec) 
Heartbeat CPU 0 instructions: 63000003 cycles: 71726812 heartbeat IPC: 1.18244 cumulative IPC: 0.78238 (Simulation time: 0 hr 31 min 20 sec) 
Heartbeat CPU 0 instructions: 64000000 cycles: 73141757 heartbeat IPC: 0.706739 cumulative IPC: 0.780832 (Simulation time: 0 hr 31 min 50 sec) 
Heartbeat CPU 0 instructions: 65000003 cycles: 74032145 heartbeat IPC: 1.12311 cumulative IPC: 0.785183 (Simulation time: 0 hr 32 min 18 sec) 
Heartbeat CPU 0 instructions: 66000002 cycles: 74885335 heartbeat IPC: 1.17207 cumulative IPC: 0.789838 (Simulation time: 0 hr 32 min 47 sec) 
Heartbeat CPU 0 instructions: 67000000 cycles: 76229358 heartbeat IPC: 0.744033 cumulative IPC: 0.788986 (Simulation time: 0 hr 33 min 18 sec) 
Heartbeat CPU 0 instructions: 68000000 cycles: 77984813 heartbeat IPC: 0.569653 cumulative IPC: 0.783783 (Simulation time: 0 hr 33 min 48 sec) 
Heartbeat CPU 0 instructions: 69000003 cycles: 78878866 heartbeat IPC: 1.11851 cumulative IPC: 0.787779 (Simulation time: 0 hr 34 min 21 sec) 
Heartbeat CPU 0 instructions: 70000000 cycles: 79732069 heartbeat IPC: 1.17205 cumulative IPC: 0.792107 (Simulation time: 0 hr 34 min 50 sec) 
Heartbeat CPU 0 instructions: 71000000 cycles: 80987581 heartbeat IPC: 0.796488 cumulative IPC: 0.792179 (Simulation time: 0 hr 35 min 21 sec) 
Heartbeat CPU 0 instructions: 72000000 cycles: 82648901 heartbeat IPC: 0.601931 cumulative IPC: 0.788161 (Simulation time: 0 hr 35 min 55 sec) 
Heartbeat CPU 0 instructions: 73000000 cycles: 83530284 heartbeat IPC: 1.13458 cumulative IPC: 0.791999 (Simulation time: 0 hr 36 min 25 sec) 
Heartbeat CPU 0 instructions: 74000000 cycles: 84385727 heartbeat IPC: 1.16899 cumulative IPC: 0.79601 (Simulation time: 0 hr 36 min 54 sec) 
Heartbeat CPU 0 instructions: 75000000 cycles: 85725306 heartbeat IPC: 0.746503 cumulative IPC: 0.795199 (Simulation time: 0 hr 37 min 29 sec) 
Heartbeat CPU 0 instructions: 76000000 cycles: 87189782 heartbeat IPC: 0.682838 cumulative IPC: 0.793221 (Simulation time: 0 hr 38 min 7 sec) 
Heartbeat CPU 0 instructions: 77000003 cycles: 88075525 heartbeat IPC: 1.129 cumulative IPC: 0.796758 (Simulation time: 0 hr 38 min 38 sec) 
Heartbeat CPU 0 instructions: 78000000 cycles: 88927235 heartbeat IPC: 1.17411 cumulative IPC: 0.800542 (Simulation time: 0 hr 39 min 7 sec) 
Heartbeat CPU 0 instructions: 79000001 cycles: 90474065 heartbeat IPC: 0.646484 cumulative IPC: 0.797786 (Simulation time: 0 hr 39 min 45 sec) 
Heartbeat CPU 0 instructions: 80000000 cycles: 91762467 heartbeat IPC: 0.776155 cumulative IPC: 0.797469 (Simulation time: 0 hr 40 min 13 sec) 
Heartbeat CPU 0 instructions: 81000000 cycles: 92641920 heartbeat IPC: 1.13707 cumulative IPC: 0.800838 (Simulation time: 0 hr 40 min 42 sec) 
Heartbeat CPU 0 instructions: 82000000 cycles: 93484930 heartbeat IPC: 1.18623 cumulative IPC: 0.804468 (Simulation time: 0 hr 41 min 10 sec) 
Heartbeat CPU 0 instructions: 83000000 cycles: 95195948 heartbeat IPC: 0.584447 cumulative IPC: 0.80034 (Simulation time: 0 hr 41 min 42 sec) 
Heartbeat CPU 0 instructions: 84000000 cycles: 96157268 heartbeat IPC: 1.04024 cumulative IPC: 0.802842 (Simulation time: 0 hr 42 min 11 sec) 
Heartbeat CPU 0 instructions: 85000001 cycles: 97001965 heartbeat IPC: 1.18386 cumulative IPC: 0.806302 (Simulation time: 0 hr 42 min 42 sec) 
Heartbeat CPU 0 instructions: 86000001 cycles: 98147744 heartbeat IPC: 0.872769 cumulative IPC: 0.807111 (Simulation time: 0 hr 43 min 11 sec) 
Heartbeat CPU 0 instructions: 87000000 cycles: 99514047 heartbeat IPC: 0.731901 cumulative IPC: 0.806036 (Simulation time: 0 hr 43 min 40 sec) 
Heartbeat CPU 0 instructions: 88000000 cycles: 100391756 heartbeat IPC: 1.13933 cumulative IPC: 0.80907 (Simulation time: 0 hr 44 min 8 sec) 
Heartbeat CPU 0 instructions: 89000000 cycles: 101228635 heartbeat IPC: 1.19492 cumulative IPC: 0.81239 (Simulation time: 0 hr 44 min 37 sec) 
Heartbeat CPU 0 instructions: 90000000 cycles: 102781312 heartbeat IPC: 0.644049 cumulative IPC: 0.809745 (Simulation time: 0 hr 45 min 8 sec) 
Heartbeat CPU 0 instructions: 91000003 cycles: 104030357 heartbeat IPC: 0.800614 cumulative IPC: 0.809631 (Simulation time: 0 hr 45 min 37 sec) 
Heartbeat CPU 0 instructions: 92000000 cycles: 105021408 heartbeat IPC: 1.00903 cumulative IPC: 0.811587 (Simulation time: 0 hr 46 min 5 sec) 
Heartbeat CPU 0 instructions: 93000000 cycles: 105875621 heartbeat IPC: 1.17067 cumulative IPC: 0.814597 (Simulation time: 0 hr 46 min 34 sec) 
Heartbeat CPU 0 instructions: 94000002 cycles: 106732083 heartbeat IPC: 1.1676 cumulative IPC: 0.81754 (Simulation time: 0 hr 47 min 3 sec) 
Heartbeat CPU 0 instructions: 95000001 cycles: 108368002 heartbeat IPC: 0.611277 cumulative IPC: 0.814307 (Simulation time: 0 hr 47 min 37 sec) 
Heartbeat CPU 0 instructions: 96000000 cycles: 109244552 heartbeat IPC: 1.14084 cumulative IPC: 0.817026 (Simulation time: 0 hr 48 min 6 sec) 
Heartbeat CPU 0 instructions: 97000000 cycles: 110095104 heartbeat IPC: 1.17571 cumulative IPC: 0.819901 (Simulation time: 0 hr 48 min 37 sec) 
Heartbeat CPU 0 instructions: 98000003 cycles: 111466793 heartbeat IPC: 0.72903 cumulative IPC: 0.818742 (Simulation time: 0 hr 49 min 10 sec) 
Heartbeat CPU 0 instructions: 99000000 cycles: 112650219 heartbeat IPC: 0.845002 cumulative IPC: 0.819027 (Simulation time: 0 hr 49 min 40 sec) 
Heartbeat CPU 0 instructions: 100000000 cycles: 113499555 heartbeat IPC: 1.17739 cumulative IPC: 0.821807 (Simulation time: 0 hr 50 min 8 sec) 
Heartbeat CPU 0 instructions: 101000000 cycles: 114362321 heartbeat IPC: 1.15906 cumulative IPC: 0.824443 (Simulation time: 0 hr 50 min 36 sec) 
Heartbeat CPU 0 instructions: 102000003 cycles: 116101449 heartbeat IPC: 0.575003 cumulative IPC: 0.820574 (Simulation time: 0 hr 51 min 5 sec) 
Heartbeat CPU 0 instructions: 103000001 cycles: 117073453 heartbeat IPC: 1.0288 cumulative IPC: 0.822363 (Simulation time: 0 hr 51 min 32 sec) 
Heartbeat CPU 0 instructions: 104000000 cycles: 117924980 heartbeat IPC: 1.17436 cumulative IPC: 0.824994 (Simulation time: 0 hr 52 min 2 sec) 
Heartbeat CPU 0 instructions: 105000002 cycles: 119112367 heartbeat IPC: 0.842187 cumulative IPC: 0.825171 (Simulation time: 0 hr 52 min 31 sec) 
Heartbeat CPU 0 instructions: 106000003 cycles: 120790996 heartbeat IPC: 0.595725 cumulative IPC: 0.821874 (Simulation time: 0 hr 53 min 2 sec) 
Heartbeat CPU 0 instructions: 107000002 cycles: 121683292 heartbeat IPC: 1.1207 cumulative IPC: 0.824139 (Simulation time: 0 hr 53 min 28 sec) 
Heartbeat CPU 0 instructions: 108000000 cycles: 122539379 heartbeat IPC: 1.1681 cumulative IPC: 0.826623 (Simulation time: 0 hr 53 min 55 sec) 
Heartbeat CPU 0 instructions: 109000001 cycles: 123812990 heartbeat IPC: 0.78517 cumulative IPC: 0.826183 (Simulation time: 0 hr 54 min 23 sec) 
Heartbeat CPU 0 instructions: 110000000 cycles: 125378205 heartbeat IPC: 0.638889 cumulative IPC: 0.823768 (Simulation time: 0 hr 54 min 49 sec) 
Finished CPU 0 instructions: 100000000 cycles: 121393444 cummulative IPC: 0.823768 (Simulation time: 0 hr 54 min 49 sec) 

ChampSim completed all CPUs

Region of Interest Statistics

CPU 0 cummulative IPC: 0.823768 instructions: 100000000 cycles: 121393444
LLC TOTAL     ACCESS:    1795469  HIT:     507329  MISS:    1288140
LLC LOAD      ACCESS:     314615  HIT:     114178  MISS:     200437
LLC RFO       ACCESS:      99962  HIT:      74440  MISS:      25522
LLC PREFETCH  ACCESS:    1239478  HIT:     202362  MISS:    1037116
LLC WRITEBACK ACCESS:     141414  HIT:     116349  MISS:      25065
Insertion Distribution: 
	LOAD 1762 0 14849 209999 
	RFO 513 0 5692 23947 
	PREF 0 5190 45746 1108525 
	WRITEBACK 0 0 0 26166 
Total Prefetch Downgrades: 6109
