
*** ChampSim Multicore Out-of-Order Simulator ***

Warmup Instructions: 10000000
Simulation Instructions: 100000000
Configuration: 2
Number of CPUs: 1
LLC sets: 2048
LLC ways: 16
Off-chip DRAM Channels: 1 Width: 64-bit Data Rate: 1600 MT/s

CPU 0 runs /datasets/cs240c-wi22-a00-public/data/Assignment2-gz/libquantum_1210B.trace.gz
CPU 0 L1D next line prefetcher
CPU 0 L2C IP-based stride prefetcher
Initialize SRRIP state
Heartbeat CPU 0 instructions: 1000003 cycles: 314916 heartbeat IPC: 3.17546 cumulative IPC: 3.17546 (Simulation time: 0 hr 0 min 21 sec) 
Heartbeat CPU 0 instructions: 2000000 cycles: 630170 heartbeat IPC: 3.17204 cumulative IPC: 3.17375 (Simulation time: 0 hr 0 min 39 sec) 
Heartbeat CPU 0 instructions: 3000001 cycles: 945979 heartbeat IPC: 3.16647 cumulative IPC: 3.17132 (Simulation time: 0 hr 0 min 58 sec) 
Heartbeat CPU 0 instructions: 4000000 cycles: 1260333 heartbeat IPC: 3.18112 cumulative IPC: 3.17376 (Simulation time: 0 hr 1 min 17 sec) 
Heartbeat CPU 0 instructions: 5000001 cycles: 1576818 heartbeat IPC: 3.15971 cumulative IPC: 3.17094 (Simulation time: 0 hr 1 min 35 sec) 
Heartbeat CPU 0 instructions: 6000002 cycles: 1891318 heartbeat IPC: 3.17965 cumulative IPC: 3.17239 (Simulation time: 0 hr 1 min 53 sec) 
Heartbeat CPU 0 instructions: 7000001 cycles: 2206981 heartbeat IPC: 3.16793 cumulative IPC: 3.17175 (Simulation time: 0 hr 2 min 11 sec) 
Heartbeat CPU 0 instructions: 8000000 cycles: 2522385 heartbeat IPC: 3.17053 cumulative IPC: 3.1716 (Simulation time: 0 hr 2 min 31 sec) 
Heartbeat CPU 0 instructions: 9000002 cycles: 2837144 heartbeat IPC: 3.17704 cumulative IPC: 3.1722 (Simulation time: 0 hr 2 min 49 sec) 
Heartbeat CPU 0 instructions: 10000003 cycles: 3153454 heartbeat IPC: 3.16146 cumulative IPC: 3.17113 (Simulation time: 0 hr 3 min 7 sec) 

Warmup complete CPU 0 instructions: 10000003 cycles: 3153454 (Simulation time: 0 hr 3 min 7 sec) 

Heartbeat CPU 0 instructions: 11000001 cycles: 5336498 heartbeat IPC: 0.458075 cumulative IPC: 0.458075 (Simulation time: 0 hr 3 min 36 sec) 
Heartbeat CPU 0 instructions: 12000000 cycles: 7461577 heartbeat IPC: 0.47057 cumulative IPC: 0.464239 (Simulation time: 0 hr 4 min 6 sec) 
Heartbeat CPU 0 instructions: 13000003 cycles: 9996767 heartbeat IPC: 0.394449 cumulative IPC: 0.438384 (Simulation time: 0 hr 4 min 41 sec) 
Heartbeat CPU 0 instructions: 14000001 cycles: 12583522 heartbeat IPC: 0.386584 cumulative IPC: 0.424175 (Simulation time: 0 hr 5 min 15 sec) 
Heartbeat CPU 0 instructions: 15000001 cycles: 15154587 heartbeat IPC: 0.388944 cumulative IPC: 0.416627 (Simulation time: 0 hr 5 min 47 sec) 
Heartbeat CPU 0 instructions: 16000000 cycles: 17743509 heartbeat IPC: 0.386261 cumulative IPC: 0.411239 (Simulation time: 0 hr 6 min 21 sec) 
Heartbeat CPU 0 instructions: 17000000 cycles: 20328850 heartbeat IPC: 0.386796 cumulative IPC: 0.40756 (Simulation time: 0 hr 6 min 56 sec) 
Heartbeat CPU 0 instructions: 18000002 cycles: 22934624 heartbeat IPC: 0.383764 cumulative IPC: 0.404425 (Simulation time: 0 hr 7 min 31 sec) 
Heartbeat CPU 0 instructions: 19000000 cycles: 25517399 heartbeat IPC: 0.38718 cumulative IPC: 0.402433 (Simulation time: 0 hr 8 min 2 sec) 
Heartbeat CPU 0 instructions: 20000000 cycles: 28083122 heartbeat IPC: 0.389754 cumulative IPC: 0.401128 (Simulation time: 0 hr 8 min 35 sec) 
Heartbeat CPU 0 instructions: 21000001 cycles: 30651803 heartbeat IPC: 0.389305 cumulative IPC: 0.400024 (Simulation time: 0 hr 9 min 8 sec) 
Heartbeat CPU 0 instructions: 22000003 cycles: 33213380 heartbeat IPC: 0.390385 cumulative IPC: 0.399203 (Simulation time: 0 hr 9 min 42 sec) 
Heartbeat CPU 0 instructions: 23000000 cycles: 35802599 heartbeat IPC: 0.386216 cumulative IPC: 0.398173 (Simulation time: 0 hr 10 min 15 sec) 
Heartbeat CPU 0 instructions: 24000000 cycles: 38399685 heartbeat IPC: 0.385047 cumulative IPC: 0.397206 (Simulation time: 0 hr 10 min 47 sec) 
Heartbeat CPU 0 instructions: 25000000 cycles: 40995752 heartbeat IPC: 0.385198 cumulative IPC: 0.396382 (Simulation time: 0 hr 11 min 19 sec) 
Heartbeat CPU 0 instructions: 26000000 cycles: 43591088 heartbeat IPC: 0.385307 cumulative IPC: 0.395671 (Simulation time: 0 hr 11 min 51 sec) 
Heartbeat CPU 0 instructions: 27000003 cycles: 46182658 heartbeat IPC: 0.385868 cumulative IPC: 0.395081 (Simulation time: 0 hr 12 min 25 sec) 
Heartbeat CPU 0 instructions: 28000000 cycles: 48534842 heartbeat IPC: 0.425136 cumulative IPC: 0.396638 (Simulation time: 0 hr 12 min 56 sec) 
Heartbeat CPU 0 instructions: 29000002 cycles: 49945176 heartbeat IPC: 0.709053 cumulative IPC: 0.406055 (Simulation time: 0 hr 13 min 30 sec) 
Heartbeat CPU 0 instructions: 30000001 cycles: 51416139 heartbeat IPC: 0.679826 cumulative IPC: 0.414399 (Simulation time: 0 hr 14 min 3 sec) 
Heartbeat CPU 0 instructions: 31000000 cycles: 52887205 heartbeat IPC: 0.679778 cumulative IPC: 0.422248 (Simulation time: 0 hr 14 min 34 sec) 
Heartbeat CPU 0 instructions: 32000000 cycles: 54358060 heartbeat IPC: 0.679877 cumulative IPC: 0.429649 (Simulation time: 0 hr 15 min 4 sec) 
Heartbeat CPU 0 instructions: 33000000 cycles: 55828940 heartbeat IPC: 0.679865 cumulative IPC: 0.436636 (Simulation time: 0 hr 15 min 36 sec) 
Heartbeat CPU 0 instructions: 34000002 cycles: 57300006 heartbeat IPC: 0.67978 cumulative IPC: 0.443242 (Simulation time: 0 hr 16 min 10 sec) 
Heartbeat CPU 0 instructions: 35000001 cycles: 58770870 heartbeat IPC: 0.679872 cumulative IPC: 0.449499 (Simulation time: 0 hr 16 min 41 sec) 
Heartbeat CPU 0 instructions: 36000000 cycles: 60241233 heartbeat IPC: 0.680103 cumulative IPC: 0.455439 (Simulation time: 0 hr 17 min 11 sec) 
Heartbeat CPU 0 instructions: 37000001 cycles: 61712117 heartbeat IPC: 0.679864 cumulative IPC: 0.461076 (Simulation time: 0 hr 17 min 47 sec) 
Heartbeat CPU 0 instructions: 38000002 cycles: 63183073 heartbeat IPC: 0.679831 cumulative IPC: 0.466436 (Simulation time: 0 hr 18 min 19 sec) 
Heartbeat CPU 0 instructions: 39000001 cycles: 64653937 heartbeat IPC: 0.679872 cumulative IPC: 0.471541 (Simulation time: 0 hr 18 min 50 sec) 
Heartbeat CPU 0 instructions: 40000000 cycles: 66124871 heartbeat IPC: 0.679839 cumulative IPC: 0.476407 (Simulation time: 0 hr 19 min 25 sec) 
Heartbeat CPU 0 instructions: 41000000 cycles: 67595849 heartbeat IPC: 0.67982 cumulative IPC: 0.48105 (Simulation time: 0 hr 20 min 2 sec) 
Heartbeat CPU 0 instructions: 42000000 cycles: 69066710 heartbeat IPC: 0.679874 cumulative IPC: 0.485487 (Simulation time: 0 hr 20 min 36 sec) 
Heartbeat CPU 0 instructions: 43000002 cycles: 70537575 heartbeat IPC: 0.679873 cumulative IPC: 0.48973 (Simulation time: 0 hr 21 min 12 sec) 
Heartbeat CPU 0 instructions: 44000000 cycles: 72008509 heartbeat IPC: 0.679839 cumulative IPC: 0.493791 (Simulation time: 0 hr 21 min 43 sec) 
Heartbeat CPU 0 instructions: 45000000 cycles: 73477554 heartbeat IPC: 0.680714 cumulative IPC: 0.497696 (Simulation time: 0 hr 22 min 21 sec) 
Heartbeat CPU 0 instructions: 46000003 cycles: 74950012 heartbeat IPC: 0.679139 cumulative IPC: 0.501417 (Simulation time: 0 hr 22 min 52 sec) 
Heartbeat CPU 0 instructions: 47000002 cycles: 76552705 heartbeat IPC: 0.623949 cumulative IPC: 0.504092 (Simulation time: 0 hr 23 min 22 sec) 
Heartbeat CPU 0 instructions: 48000000 cycles: 78769641 heartbeat IPC: 0.451072 cumulative IPC: 0.502538 (Simulation time: 0 hr 23 min 52 sec) 
Heartbeat CPU 0 instructions: 49000000 cycles: 81073527 heartbeat IPC: 0.434049 cumulative IPC: 0.500513 (Simulation time: 0 hr 24 min 23 sec) 
Heartbeat CPU 0 instructions: 50000003 cycles: 83387099 heartbeat IPC: 0.432233 cumulative IPC: 0.498544 (Simulation time: 0 hr 24 min 51 sec) 
Heartbeat CPU 0 instructions: 51000000 cycles: 85698401 heartbeat IPC: 0.432655 cumulative IPC: 0.496699 (Simulation time: 0 hr 25 min 22 sec) 
Heartbeat CPU 0 instructions: 52000000 cycles: 88024614 heartbeat IPC: 0.429883 cumulative IPC: 0.494868 (Simulation time: 0 hr 25 min 53 sec) 
Heartbeat CPU 0 instructions: 53000003 cycles: 90320024 heartbeat IPC: 0.435653 cumulative IPC: 0.493308 (Simulation time: 0 hr 26 min 24 sec) 
Heartbeat CPU 0 instructions: 54000003 cycles: 92612357 heartbeat IPC: 0.436237 cumulative IPC: 0.491846 (Simulation time: 0 hr 26 min 54 sec) 
Heartbeat CPU 0 instructions: 55000002 cycles: 94910392 heartbeat IPC: 0.435154 cumulative IPC: 0.490426 (Simulation time: 0 hr 27 min 24 sec) 
Heartbeat CPU 0 instructions: 56000000 cycles: 97232898 heartbeat IPC: 0.430569 cumulative IPC: 0.488948 (Simulation time: 0 hr 27 min 56 sec) 
Heartbeat CPU 0 instructions: 57000001 cycles: 99552603 heartbeat IPC: 0.43109 cumulative IPC: 0.487556 (Simulation time: 0 hr 28 min 28 sec) 
Heartbeat CPU 0 instructions: 58000000 cycles: 101865127 heartbeat IPC: 0.432428 cumulative IPC: 0.486265 (Simulation time: 0 hr 29 min 1 sec) 
Heartbeat CPU 0 instructions: 59000000 cycles: 104182925 heartbeat IPC: 0.431444 cumulative IPC: 0.485007 (Simulation time: 0 hr 29 min 32 sec) 
Heartbeat CPU 0 instructions: 60000000 cycles: 106475574 heartbeat IPC: 0.436177 cumulative IPC: 0.483923 (Simulation time: 0 hr 30 min 5 sec) 
Heartbeat CPU 0 instructions: 61000001 cycles: 108782841 heartbeat IPC: 0.433414 cumulative IPC: 0.48282 (Simulation time: 0 hr 30 min 37 sec) 
Heartbeat CPU 0 instructions: 62000000 cycles: 111086996 heartbeat IPC: 0.433998 cumulative IPC: 0.481778 (Simulation time: 0 hr 31 min 9 sec) 
Heartbeat CPU 0 instructions: 63000001 cycles: 113148071 heartbeat IPC: 0.485184 cumulative IPC: 0.481842 (Simulation time: 0 hr 31 min 38 sec) 
Heartbeat CPU 0 instructions: 64000000 cycles: 115280172 heartbeat IPC: 0.46902 cumulative IPC: 0.481598 (Simulation time: 0 hr 32 min 7 sec) 
Heartbeat CPU 0 instructions: 65000000 cycles: 117409162 heartbeat IPC: 0.469706 cumulative IPC: 0.481376 (Simulation time: 0 hr 32 min 35 sec) 
Heartbeat CPU 0 instructions: 66000001 cycles: 119562619 heartbeat IPC: 0.46437 cumulative IPC: 0.481062 (Simulation time: 0 hr 33 min 5 sec) 
Heartbeat CPU 0 instructions: 67000000 cycles: 121662537 heartbeat IPC: 0.476209 cumulative IPC: 0.480976 (Simulation time: 0 hr 33 min 37 sec) 
Heartbeat CPU 0 instructions: 68000000 cycles: 123819585 heartbeat IPC: 0.463597 cumulative IPC: 0.480665 (Simulation time: 0 hr 34 min 6 sec) 
Heartbeat CPU 0 instructions: 69000002 cycles: 125965222 heartbeat IPC: 0.466063 cumulative IPC: 0.48041 (Simulation time: 0 hr 34 min 34 sec) 
Heartbeat CPU 0 instructions: 70000001 cycles: 128102448 heartbeat IPC: 0.467896 cumulative IPC: 0.480196 (Simulation time: 0 hr 35 min 3 sec) 
Heartbeat CPU 0 instructions: 71000000 cycles: 130261333 heartbeat IPC: 0.463202 cumulative IPC: 0.479907 (Simulation time: 0 hr 35 min 32 sec) 
Heartbeat CPU 0 instructions: 72000000 cycles: 132376754 heartbeat IPC: 0.472719 cumulative IPC: 0.47979 (Simulation time: 0 hr 35 min 58 sec) 
Heartbeat CPU 0 instructions: 73000002 cycles: 134534953 heartbeat IPC: 0.46335 cumulative IPC: 0.47952 (Simulation time: 0 hr 36 min 28 sec) 
Heartbeat CPU 0 instructions: 74000002 cycles: 136652023 heartbeat IPC: 0.472351 cumulative IPC: 0.479406 (Simulation time: 0 hr 36 min 57 sec) 
Heartbeat CPU 0 instructions: 75000001 cycles: 138794187 heartbeat IPC: 0.466817 cumulative IPC: 0.479207 (Simulation time: 0 hr 37 min 26 sec) 
Heartbeat CPU 0 instructions: 76000000 cycles: 140934700 heartbeat IPC: 0.467177 cumulative IPC: 0.47902 (Simulation time: 0 hr 37 min 56 sec) 
Heartbeat CPU 0 instructions: 77000000 cycles: 143068533 heartbeat IPC: 0.46864 cumulative IPC: 0.478862 (Simulation time: 0 hr 38 min 24 sec) 
Heartbeat CPU 0 instructions: 78000002 cycles: 145235849 heartbeat IPC: 0.461401 cumulative IPC: 0.478596 (Simulation time: 0 hr 38 min 53 sec) 
Heartbeat CPU 0 instructions: 79000001 cycles: 147351542 heartbeat IPC: 0.472658 cumulative IPC: 0.478508 (Simulation time: 0 hr 39 min 24 sec) 
Heartbeat CPU 0 instructions: 80000000 cycles: 149520293 heartbeat IPC: 0.461094 cumulative IPC: 0.47825 (Simulation time: 0 hr 39 min 55 sec) 
Heartbeat CPU 0 instructions: 81000000 cycles: 151657854 heartbeat IPC: 0.467823 cumulative IPC: 0.4781 (Simulation time: 0 hr 40 min 23 sec) 
Heartbeat CPU 0 instructions: 82000000 cycles: 153803693 heartbeat IPC: 0.466018 cumulative IPC: 0.477928 (Simulation time: 0 hr 40 min 52 sec) 
Heartbeat CPU 0 instructions: 83000001 cycles: 156051474 heartbeat IPC: 0.444884 cumulative IPC: 0.477442 (Simulation time: 0 hr 41 min 22 sec) 
Heartbeat CPU 0 instructions: 84000000 cycles: 158548219 heartbeat IPC: 0.400521 cumulative IPC: 0.476207 (Simulation time: 0 hr 41 min 57 sec) 
Heartbeat CPU 0 instructions: 85000001 cycles: 161043226 heartbeat IPC: 0.400801 cumulative IPC: 0.475015 (Simulation time: 0 hr 42 min 29 sec) 
Heartbeat CPU 0 instructions: 86000001 cycles: 163533356 heartbeat IPC: 0.401585 cumulative IPC: 0.473875 (Simulation time: 0 hr 43 min 0 sec) 
Heartbeat CPU 0 instructions: 87000003 cycles: 166043015 heartbeat IPC: 0.398461 cumulative IPC: 0.472713 (Simulation time: 0 hr 43 min 32 sec) 
Heartbeat CPU 0 instructions: 88000000 cycles: 168555028 heartbeat IPC: 0.398086 cumulative IPC: 0.47158 (Simulation time: 0 hr 44 min 7 sec) 
Heartbeat CPU 0 instructions: 89000001 cycles: 171065042 heartbeat IPC: 0.398405 cumulative IPC: 0.470486 (Simulation time: 0 hr 44 min 42 sec) 
Heartbeat CPU 0 instructions: 90000000 cycles: 173568448 heartbeat IPC: 0.399455 cumulative IPC: 0.469442 (Simulation time: 0 hr 45 min 15 sec) 
Heartbeat CPU 0 instructions: 91000002 cycles: 176062279 heartbeat IPC: 0.40099 cumulative IPC: 0.468455 (Simulation time: 0 hr 45 min 45 sec) 
Heartbeat CPU 0 instructions: 92000000 cycles: 178538345 heartbeat IPC: 0.403866 cumulative IPC: 0.467543 (Simulation time: 0 hr 46 min 16 sec) 
Heartbeat CPU 0 instructions: 93000003 cycles: 181035016 heartbeat IPC: 0.400535 cumulative IPC: 0.466603 (Simulation time: 0 hr 46 min 49 sec) 
Heartbeat CPU 0 instructions: 94000000 cycles: 183546755 heartbeat IPC: 0.398129 cumulative IPC: 0.465649 (Simulation time: 0 hr 47 min 25 sec) 
Heartbeat CPU 0 instructions: 95000002 cycles: 186060011 heartbeat IPC: 0.397891 cumulative IPC: 0.464718 (Simulation time: 0 hr 47 min 58 sec) 
Heartbeat CPU 0 instructions: 96000000 cycles: 188579890 heartbeat IPC: 0.396844 cumulative IPC: 0.463796 (Simulation time: 0 hr 48 min 29 sec) 
Heartbeat CPU 0 instructions: 97000001 cycles: 191100940 heartbeat IPC: 0.396661 cumulative IPC: 0.462895 (Simulation time: 0 hr 49 min 0 sec) 
Heartbeat CPU 0 instructions: 98000002 cycles: 193600375 heartbeat IPC: 0.400091 cumulative IPC: 0.462071 (Simulation time: 0 hr 49 min 31 sec) 
Heartbeat CPU 0 instructions: 99000002 cycles: 195164863 heartbeat IPC: 0.639187 cumulative IPC: 0.463514 (Simulation time: 0 hr 50 min 2 sec) 
Heartbeat CPU 0 instructions: 100000000 cycles: 196595407 heartbeat IPC: 0.699033 cumulative IPC: 0.465256 (Simulation time: 0 hr 50 min 33 sec) 
Heartbeat CPU 0 instructions: 101000000 cycles: 198022121 heartbeat IPC: 0.700911 cumulative IPC: 0.466981 (Simulation time: 0 hr 51 min 10 sec) 
Heartbeat CPU 0 instructions: 102000003 cycles: 199448715 heartbeat IPC: 0.700972 cumulative IPC: 0.468682 (Simulation time: 0 hr 51 min 40 sec) 
Heartbeat CPU 0 instructions: 103000002 cycles: 200875311 heartbeat IPC: 0.700969 cumulative IPC: 0.470358 (Simulation time: 0 hr 52 min 11 sec) 
Heartbeat CPU 0 instructions: 104000000 cycles: 202301975 heartbeat IPC: 0.700934 cumulative IPC: 0.47201 (Simulation time: 0 hr 52 min 41 sec) 
Heartbeat CPU 0 instructions: 105000000 cycles: 203728689 heartbeat IPC: 0.700911 cumulative IPC: 0.473638 (Simulation time: 0 hr 53 min 13 sec) 
Heartbeat CPU 0 instructions: 106000001 cycles: 205154917 heartbeat IPC: 0.701151 cumulative IPC: 0.475244 (Simulation time: 0 hr 53 min 42 sec) 
Heartbeat CPU 0 instructions: 107000000 cycles: 206581513 heartbeat IPC: 0.700969 cumulative IPC: 0.476827 (Simulation time: 0 hr 54 min 11 sec) 
Heartbeat CPU 0 instructions: 108000000 cycles: 208008178 heartbeat IPC: 0.700935 cumulative IPC: 0.478388 (Simulation time: 0 hr 54 min 38 sec) 
Heartbeat CPU 0 instructions: 109000001 cycles: 209434894 heartbeat IPC: 0.700911 cumulative IPC: 0.479927 (Simulation time: 0 hr 55 min 3 sec) 
Heartbeat CPU 0 instructions: 110000000 cycles: 210861486 heartbeat IPC: 0.700971 cumulative IPC: 0.481445 (Simulation time: 0 hr 55 min 28 sec) 
Finished CPU 0 instructions: 100000001 cycles: 207708036 cummulative IPC: 0.481445 (Simulation time: 0 hr 55 min 28 sec) 

ChampSim completed all CPUs

Region of Interest Statistics

CPU 0 cummulative IPC: 0.481445 instructions: 100000001 cycles: 207708036
LLC TOTAL     ACCESS:    4047262  HIT:     129460  MISS:    3917802
LLC LOAD      ACCESS:     835034  HIT:      18463  MISS:     816571
LLC RFO       ACCESS:         24  HIT:         20  MISS:          4
LLC PREFETCH  ACCESS:    2171768  HIT:      45322  MISS:    2126446
LLC WRITEBACK ACCESS:    1040436  HIT:      65655  MISS:     974781
Insertion Distribution: 
	LOAD 9237 0 20537 790906 
	RFO 0 0 4 0 
	PREF 0 1543 23657 2359927 
	WRITEBACK 0 0 0 1090219 
Total Prefetch Downgrades: 4645
