
*** ChampSim Multicore Out-of-Order Simulator ***

Warmup Instructions: 10000000
Simulation Instructions: 100000000
Configuration: 2
Number of CPUs: 1
LLC sets: 2048
LLC ways: 16
Off-chip DRAM Channels: 1 Width: 64-bit Data Rate: 1600 MT/s

CPU 0 runs /datasets/cs240c-wi22-a00-public/data/Assignment2-gz/milc_744B.trace.gz
CPU 0 L1D next line prefetcher
CPU 0 L2C IP-based stride prefetcher
Initialize SRRIP state
Heartbeat CPU 0 instructions: 1000000 cycles: 383656 heartbeat IPC: 2.6065 cumulative IPC: 2.6065 (Simulation time: 0 hr 0 min 32 sec) 
Heartbeat CPU 0 instructions: 2000001 cycles: 767293 heartbeat IPC: 2.60663 cumulative IPC: 2.60657 (Simulation time: 0 hr 1 min 1 sec) 
Heartbeat CPU 0 instructions: 3000001 cycles: 1150974 heartbeat IPC: 2.60633 cumulative IPC: 2.60649 (Simulation time: 0 hr 1 min 36 sec) 
Heartbeat CPU 0 instructions: 4000000 cycles: 1534617 heartbeat IPC: 2.60659 cumulative IPC: 2.60651 (Simulation time: 0 hr 2 min 3 sec) 
Heartbeat CPU 0 instructions: 5000001 cycles: 1918298 heartbeat IPC: 2.60633 cumulative IPC: 2.60648 (Simulation time: 0 hr 2 min 35 sec) 
Heartbeat CPU 0 instructions: 6000002 cycles: 2301951 heartbeat IPC: 2.60652 cumulative IPC: 2.60649 (Simulation time: 0 hr 3 min 11 sec) 
Heartbeat CPU 0 instructions: 7000002 cycles: 2685605 heartbeat IPC: 2.60652 cumulative IPC: 2.60649 (Simulation time: 0 hr 3 min 41 sec) 
Heartbeat CPU 0 instructions: 8000000 cycles: 3069239 heartbeat IPC: 2.60665 cumulative IPC: 2.60651 (Simulation time: 0 hr 4 min 11 sec) 
Heartbeat CPU 0 instructions: 9000003 cycles: 3452946 heartbeat IPC: 2.60616 cumulative IPC: 2.60647 (Simulation time: 0 hr 4 min 39 sec) 
Heartbeat CPU 0 instructions: 10000002 cycles: 3836611 heartbeat IPC: 2.60644 cumulative IPC: 2.60647 (Simulation time: 0 hr 5 min 9 sec) 

Warmup complete CPU 0 instructions: 10000002 cycles: 3836611 (Simulation time: 0 hr 5 min 9 sec) 

Heartbeat CPU 0 instructions: 11000003 cycles: 5257289 heartbeat IPC: 0.70389 cumulative IPC: 0.70389 (Simulation time: 0 hr 5 min 41 sec) 
Heartbeat CPU 0 instructions: 12000000 cycles: 6669751 heartbeat IPC: 0.707982 cumulative IPC: 0.70593 (Simulation time: 0 hr 6 min 11 sec) 
Heartbeat CPU 0 instructions: 13000003 cycles: 8085847 heartbeat IPC: 0.706169 cumulative IPC: 0.70601 (Simulation time: 0 hr 6 min 44 sec) 
Heartbeat CPU 0 instructions: 14000000 cycles: 9502729 heartbeat IPC: 0.705773 cumulative IPC: 0.70595 (Simulation time: 0 hr 7 min 19 sec) 
Heartbeat CPU 0 instructions: 15000000 cycles: 10913383 heartbeat IPC: 0.708891 cumulative IPC: 0.706537 (Simulation time: 0 hr 7 min 53 sec) 
Heartbeat CPU 0 instructions: 16000000 cycles: 12324288 heartbeat IPC: 0.708765 cumulative IPC: 0.706907 (Simulation time: 0 hr 8 min 26 sec) 
Heartbeat CPU 0 instructions: 17000001 cycles: 13749426 heartbeat IPC: 0.701687 cumulative IPC: 0.706157 (Simulation time: 0 hr 8 min 59 sec) 
Heartbeat CPU 0 instructions: 18000000 cycles: 15178357 heartbeat IPC: 0.699823 cumulative IPC: 0.705359 (Simulation time: 0 hr 9 min 35 sec) 
Heartbeat CPU 0 instructions: 19000003 cycles: 16592741 heartbeat IPC: 0.707024 cumulative IPC: 0.705543 (Simulation time: 0 hr 10 min 8 sec) 
Heartbeat CPU 0 instructions: 20000000 cycles: 18013786 heartbeat IPC: 0.703705 cumulative IPC: 0.705359 (Simulation time: 0 hr 10 min 41 sec) 
Heartbeat CPU 0 instructions: 21000003 cycles: 19435514 heartbeat IPC: 0.703372 cumulative IPC: 0.705178 (Simulation time: 0 hr 11 min 16 sec) 
Heartbeat CPU 0 instructions: 22000002 cycles: 20855755 heartbeat IPC: 0.704105 cumulative IPC: 0.705088 (Simulation time: 0 hr 11 min 47 sec) 
Heartbeat CPU 0 instructions: 23000000 cycles: 22279260 heartbeat IPC: 0.70249 cumulative IPC: 0.704888 (Simulation time: 0 hr 12 min 25 sec) 
Heartbeat CPU 0 instructions: 24000000 cycles: 23694249 heartbeat IPC: 0.706719 cumulative IPC: 0.705018 (Simulation time: 0 hr 12 min 57 sec) 
Heartbeat CPU 0 instructions: 25000002 cycles: 25116482 heartbeat IPC: 0.703121 cumulative IPC: 0.704892 (Simulation time: 0 hr 13 min 31 sec) 
Heartbeat CPU 0 instructions: 26000001 cycles: 26538835 heartbeat IPC: 0.70306 cumulative IPC: 0.704777 (Simulation time: 0 hr 14 min 3 sec) 
Heartbeat CPU 0 instructions: 27000001 cycles: 27959640 heartbeat IPC: 0.703826 cumulative IPC: 0.704721 (Simulation time: 0 hr 14 min 33 sec) 
Heartbeat CPU 0 instructions: 28000000 cycles: 29376986 heartbeat IPC: 0.705543 cumulative IPC: 0.704766 (Simulation time: 0 hr 15 min 2 sec) 
Heartbeat CPU 0 instructions: 29000000 cycles: 30790785 heartbeat IPC: 0.707314 cumulative IPC: 0.7049 (Simulation time: 0 hr 15 min 33 sec) 
Heartbeat CPU 0 instructions: 30000000 cycles: 32210549 heartbeat IPC: 0.704342 cumulative IPC: 0.704872 (Simulation time: 0 hr 16 min 2 sec) 
Heartbeat CPU 0 instructions: 31000003 cycles: 33630001 heartbeat IPC: 0.704499 cumulative IPC: 0.704854 (Simulation time: 0 hr 16 min 34 sec) 
Heartbeat CPU 0 instructions: 32000000 cycles: 35049531 heartbeat IPC: 0.704456 cumulative IPC: 0.704836 (Simulation time: 0 hr 17 min 5 sec) 
Heartbeat CPU 0 instructions: 33000001 cycles: 36470253 heartbeat IPC: 0.703868 cumulative IPC: 0.704794 (Simulation time: 0 hr 17 min 39 sec) 
Heartbeat CPU 0 instructions: 34000002 cycles: 37894604 heartbeat IPC: 0.702075 cumulative IPC: 0.70468 (Simulation time: 0 hr 18 min 9 sec) 
Heartbeat CPU 0 instructions: 35000000 cycles: 39318215 heartbeat IPC: 0.702438 cumulative IPC: 0.70459 (Simulation time: 0 hr 18 min 39 sec) 
Heartbeat CPU 0 instructions: 36000000 cycles: 40736170 heartbeat IPC: 0.705241 cumulative IPC: 0.704615 (Simulation time: 0 hr 19 min 12 sec) 
Heartbeat CPU 0 instructions: 37000001 cycles: 42167604 heartbeat IPC: 0.698601 cumulative IPC: 0.704391 (Simulation time: 0 hr 19 min 45 sec) 
Heartbeat CPU 0 instructions: 38000001 cycles: 43586338 heartbeat IPC: 0.704854 cumulative IPC: 0.704407 (Simulation time: 0 hr 20 min 16 sec) 
Heartbeat CPU 0 instructions: 39000001 cycles: 45005083 heartbeat IPC: 0.704848 cumulative IPC: 0.704423 (Simulation time: 0 hr 20 min 49 sec) 
Heartbeat CPU 0 instructions: 40000000 cycles: 46424679 heartbeat IPC: 0.704425 cumulative IPC: 0.704423 (Simulation time: 0 hr 21 min 20 sec) 
Heartbeat CPU 0 instructions: 41000000 cycles: 47847180 heartbeat IPC: 0.702987 cumulative IPC: 0.704376 (Simulation time: 0 hr 21 min 54 sec) 
Heartbeat CPU 0 instructions: 42000002 cycles: 49264192 heartbeat IPC: 0.705712 cumulative IPC: 0.704418 (Simulation time: 0 hr 22 min 26 sec) 
Heartbeat CPU 0 instructions: 43000003 cycles: 50683845 heartbeat IPC: 0.704398 cumulative IPC: 0.704417 (Simulation time: 0 hr 22 min 58 sec) 
Heartbeat CPU 0 instructions: 44000000 cycles: 52110394 heartbeat IPC: 0.70099 cumulative IPC: 0.704316 (Simulation time: 0 hr 23 min 30 sec) 
Heartbeat CPU 0 instructions: 45000000 cycles: 53527131 heartbeat IPC: 0.705847 cumulative IPC: 0.70436 (Simulation time: 0 hr 24 min 2 sec) 
Heartbeat CPU 0 instructions: 46000003 cycles: 54949501 heartbeat IPC: 0.703054 cumulative IPC: 0.704323 (Simulation time: 0 hr 24 min 34 sec) 
Heartbeat CPU 0 instructions: 47000002 cycles: 56369939 heartbeat IPC: 0.704008 cumulative IPC: 0.704315 (Simulation time: 0 hr 25 min 7 sec) 
Heartbeat CPU 0 instructions: 48000000 cycles: 57790553 heartbeat IPC: 0.70392 cumulative IPC: 0.704304 (Simulation time: 0 hr 25 min 42 sec) 
Heartbeat CPU 0 instructions: 49000001 cycles: 59211215 heartbeat IPC: 0.703898 cumulative IPC: 0.704294 (Simulation time: 0 hr 26 min 14 sec) 
Heartbeat CPU 0 instructions: 50000001 cycles: 60632783 heartbeat IPC: 0.703449 cumulative IPC: 0.704273 (Simulation time: 0 hr 26 min 46 sec) 
Heartbeat CPU 0 instructions: 51000001 cycles: 62053545 heartbeat IPC: 0.703848 cumulative IPC: 0.704262 (Simulation time: 0 hr 27 min 19 sec) 
Heartbeat CPU 0 instructions: 52000000 cycles: 63471110 heartbeat IPC: 0.705434 cumulative IPC: 0.70429 (Simulation time: 0 hr 27 min 52 sec) 
Heartbeat CPU 0 instructions: 53000000 cycles: 64890889 heartbeat IPC: 0.704335 cumulative IPC: 0.704291 (Simulation time: 0 hr 28 min 27 sec) 
Heartbeat CPU 0 instructions: 54000001 cycles: 66309903 heartbeat IPC: 0.704715 cumulative IPC: 0.704301 (Simulation time: 0 hr 28 min 58 sec) 
Heartbeat CPU 0 instructions: 55000003 cycles: 67733264 heartbeat IPC: 0.702564 cumulative IPC: 0.704262 (Simulation time: 0 hr 29 min 30 sec) 
Heartbeat CPU 0 instructions: 56000000 cycles: 69158334 heartbeat IPC: 0.701718 cumulative IPC: 0.704207 (Simulation time: 0 hr 30 min 2 sec) 
Heartbeat CPU 0 instructions: 57000000 cycles: 70577660 heartbeat IPC: 0.70456 cumulative IPC: 0.704214 (Simulation time: 0 hr 30 min 35 sec) 
Heartbeat CPU 0 instructions: 58000000 cycles: 71997061 heartbeat IPC: 0.704523 cumulative IPC: 0.704221 (Simulation time: 0 hr 31 min 8 sec) 
Heartbeat CPU 0 instructions: 59000002 cycles: 73418330 heartbeat IPC: 0.703598 cumulative IPC: 0.704208 (Simulation time: 0 hr 31 min 39 sec) 
Heartbeat CPU 0 instructions: 60000000 cycles: 74835600 heartbeat IPC: 0.70558 cumulative IPC: 0.704235 (Simulation time: 0 hr 32 min 10 sec) 
Heartbeat CPU 0 instructions: 61000001 cycles: 76257488 heartbeat IPC: 0.703291 cumulative IPC: 0.704217 (Simulation time: 0 hr 32 min 42 sec) 
Heartbeat CPU 0 instructions: 62000003 cycles: 77685247 heartbeat IPC: 0.7004 cumulative IPC: 0.704143 (Simulation time: 0 hr 33 min 15 sec) 
Heartbeat CPU 0 instructions: 63000001 cycles: 79105294 heartbeat IPC: 0.704201 cumulative IPC: 0.704144 (Simulation time: 0 hr 33 min 46 sec) 
Heartbeat CPU 0 instructions: 64000000 cycles: 80524545 heartbeat IPC: 0.704596 cumulative IPC: 0.704152 (Simulation time: 0 hr 34 min 17 sec) 
Heartbeat CPU 0 instructions: 65000002 cycles: 81944603 heartbeat IPC: 0.704198 cumulative IPC: 0.704153 (Simulation time: 0 hr 34 min 49 sec) 
Heartbeat CPU 0 instructions: 66000001 cycles: 83362403 heartbeat IPC: 0.705317 cumulative IPC: 0.704174 (Simulation time: 0 hr 35 min 22 sec) 
Heartbeat CPU 0 instructions: 67000003 cycles: 84783910 heartbeat IPC: 0.70348 cumulative IPC: 0.704162 (Simulation time: 0 hr 35 min 55 sec) 
Heartbeat CPU 0 instructions: 68000000 cycles: 86210186 heartbeat IPC: 0.701124 cumulative IPC: 0.704109 (Simulation time: 0 hr 36 min 32 sec) 
Heartbeat CPU 0 instructions: 69000003 cycles: 87635254 heartbeat IPC: 0.701723 cumulative IPC: 0.704069 (Simulation time: 0 hr 37 min 8 sec) 
Heartbeat CPU 0 instructions: 70000002 cycles: 89053246 heartbeat IPC: 0.705222 cumulative IPC: 0.704088 (Simulation time: 0 hr 37 min 40 sec) 
Heartbeat CPU 0 instructions: 71000002 cycles: 90462694 heartbeat IPC: 0.709498 cumulative IPC: 0.704176 (Simulation time: 0 hr 38 min 15 sec) 
Heartbeat CPU 0 instructions: 72000000 cycles: 91882916 heartbeat IPC: 0.704114 cumulative IPC: 0.704175 (Simulation time: 0 hr 38 min 45 sec) 
Heartbeat CPU 0 instructions: 73000002 cycles: 93308270 heartbeat IPC: 0.701581 cumulative IPC: 0.704134 (Simulation time: 0 hr 39 min 17 sec) 
Heartbeat CPU 0 instructions: 74000002 cycles: 94729477 heartbeat IPC: 0.703627 cumulative IPC: 0.704126 (Simulation time: 0 hr 39 min 48 sec) 
Heartbeat CPU 0 instructions: 75000001 cycles: 96146330 heartbeat IPC: 0.705789 cumulative IPC: 0.704151 (Simulation time: 0 hr 40 min 20 sec) 
Heartbeat CPU 0 instructions: 76000000 cycles: 97566749 heartbeat IPC: 0.704017 cumulative IPC: 0.704149 (Simulation time: 0 hr 40 min 52 sec) 
Heartbeat CPU 0 instructions: 77000002 cycles: 98989766 heartbeat IPC: 0.702734 cumulative IPC: 0.704128 (Simulation time: 0 hr 41 min 22 sec) 
Heartbeat CPU 0 instructions: 78000000 cycles: 100412579 heartbeat IPC: 0.702832 cumulative IPC: 0.704109 (Simulation time: 0 hr 41 min 56 sec) 
Heartbeat CPU 0 instructions: 79000000 cycles: 101834592 heartbeat IPC: 0.703228 cumulative IPC: 0.704096 (Simulation time: 0 hr 42 min 32 sec) 
Heartbeat CPU 0 instructions: 80000000 cycles: 103257704 heartbeat IPC: 0.702685 cumulative IPC: 0.704076 (Simulation time: 0 hr 43 min 4 sec) 
Heartbeat CPU 0 instructions: 81000003 cycles: 104662663 heartbeat IPC: 0.711767 cumulative IPC: 0.704183 (Simulation time: 0 hr 43 min 37 sec) 
Heartbeat CPU 0 instructions: 82000003 cycles: 106083694 heartbeat IPC: 0.703714 cumulative IPC: 0.704177 (Simulation time: 0 hr 44 min 10 sec) 
Heartbeat CPU 0 instructions: 83000002 cycles: 107504745 heartbeat IPC: 0.703704 cumulative IPC: 0.70417 (Simulation time: 0 hr 44 min 41 sec) 
Heartbeat CPU 0 instructions: 84000000 cycles: 108924776 heartbeat IPC: 0.704209 cumulative IPC: 0.704171 (Simulation time: 0 hr 45 min 14 sec) 
Heartbeat CPU 0 instructions: 85000000 cycles: 110344720 heartbeat IPC: 0.704253 cumulative IPC: 0.704172 (Simulation time: 0 hr 45 min 46 sec) 
Heartbeat CPU 0 instructions: 86000001 cycles: 111761202 heartbeat IPC: 0.705975 cumulative IPC: 0.704195 (Simulation time: 0 hr 46 min 18 sec) 
Heartbeat CPU 0 instructions: 87000001 cycles: 113186075 heartbeat IPC: 0.701817 cumulative IPC: 0.704164 (Simulation time: 0 hr 46 min 51 sec) 
Heartbeat CPU 0 instructions: 88000000 cycles: 114609043 heartbeat IPC: 0.702756 cumulative IPC: 0.704146 (Simulation time: 0 hr 47 min 25 sec) 
Heartbeat CPU 0 instructions: 89000001 cycles: 116026686 heartbeat IPC: 0.705397 cumulative IPC: 0.704162 (Simulation time: 0 hr 47 min 58 sec) 
Heartbeat CPU 0 instructions: 90000000 cycles: 117451738 heartbeat IPC: 0.701728 cumulative IPC: 0.704132 (Simulation time: 0 hr 48 min 29 sec) 
Heartbeat CPU 0 instructions: 91000001 cycles: 118873260 heartbeat IPC: 0.703472 cumulative IPC: 0.704123 (Simulation time: 0 hr 49 min 1 sec) 
Heartbeat CPU 0 instructions: 92000000 cycles: 123354021 heartbeat IPC: 0.223176 cumulative IPC: 0.686092 (Simulation time: 0 hr 50 min 3 sec) 
Heartbeat CPU 0 instructions: 93000000 cycles: 127986021 heartbeat IPC: 0.215889 cumulative IPC: 0.668549 (Simulation time: 0 hr 51 min 4 sec) 
Heartbeat CPU 0 instructions: 94000000 cycles: 131149893 heartbeat IPC: 0.316068 cumulative IPC: 0.65979 (Simulation time: 0 hr 51 min 53 sec) 
Heartbeat CPU 0 instructions: 95000000 cycles: 132370604 heartbeat IPC: 0.819195 cumulative IPC: 0.661304 (Simulation time: 0 hr 52 min 28 sec) 
Heartbeat CPU 0 instructions: 96000000 cycles: 133658453 heartbeat IPC: 0.776489 cumulative IPC: 0.662446 (Simulation time: 0 hr 52 min 59 sec) 
Heartbeat CPU 0 instructions: 97000002 cycles: 134901453 heartbeat IPC: 0.804507 cumulative IPC: 0.663794 (Simulation time: 0 hr 53 min 26 sec) 
Heartbeat CPU 0 instructions: 98000003 cycles: 136145389 heartbeat IPC: 0.803901 cumulative IPC: 0.665111 (Simulation time: 0 hr 53 min 52 sec) 
Heartbeat CPU 0 instructions: 99000000 cycles: 137398161 heartbeat IPC: 0.798227 cumulative IPC: 0.666359 (Simulation time: 0 hr 54 min 19 sec) 
Heartbeat CPU 0 instructions: 100000000 cycles: 138648147 heartbeat IPC: 0.800009 cumulative IPC: 0.667599 (Simulation time: 0 hr 54 min 44 sec) 
Heartbeat CPU 0 instructions: 101000001 cycles: 139906706 heartbeat IPC: 0.79456 cumulative IPC: 0.668773 (Simulation time: 0 hr 55 min 6 sec) 
Heartbeat CPU 0 instructions: 102000000 cycles: 141167257 heartbeat IPC: 0.793303 cumulative IPC: 0.669916 (Simulation time: 0 hr 55 min 30 sec) 
Heartbeat CPU 0 instructions: 103000002 cycles: 142422900 heartbeat IPC: 0.796406 cumulative IPC: 0.671062 (Simulation time: 0 hr 55 min 53 sec) 
Heartbeat CPU 0 instructions: 104000000 cycles: 143681418 heartbeat IPC: 0.794584 cumulative IPC: 0.672174 (Simulation time: 0 hr 56 min 15 sec) 
Heartbeat CPU 0 instructions: 105000003 cycles: 144937749 heartbeat IPC: 0.795971 cumulative IPC: 0.673276 (Simulation time: 0 hr 56 min 36 sec) 
Heartbeat CPU 0 instructions: 106000002 cycles: 146192389 heartbeat IPC: 0.797041 cumulative IPC: 0.674367 (Simulation time: 0 hr 56 min 55 sec) 
Heartbeat CPU 0 instructions: 107000002 cycles: 147452376 heartbeat IPC: 0.793659 cumulative IPC: 0.675413 (Simulation time: 0 hr 57 min 15 sec) 
Heartbeat CPU 0 instructions: 108000000 cycles: 148715405 heartbeat IPC: 0.791746 cumulative IPC: 0.676427 (Simulation time: 0 hr 57 min 35 sec) 
Heartbeat CPU 0 instructions: 109000001 cycles: 149969497 heartbeat IPC: 0.79739 cumulative IPC: 0.677466 (Simulation time: 0 hr 57 min 54 sec) 
Heartbeat CPU 0 instructions: 110000001 cycles: 151229810 heartbeat IPC: 0.793454 cumulative IPC: 0.678457 (Simulation time: 0 hr 58 min 12 sec) 
Finished CPU 0 instructions: 100000003 cycles: 147393200 cummulative IPC: 0.678457 (Simulation time: 0 hr 58 min 12 sec) 

ChampSim completed all CPUs

Region of Interest Statistics

CPU 0 cummulative IPC: 0.678457 instructions: 100000003 cycles: 147393200
LLC TOTAL     ACCESS:    2872436  HIT:      41307  MISS:    2831129
LLC LOAD      ACCESS:     739099  HIT:        135  MISS:     738964
LLC RFO       ACCESS:     423298  HIT:       3260  MISS:     420038
LLC PREFETCH  ACCESS:    1009321  HIT:       1605  MISS:    1007716
LLC WRITEBACK ACCESS:     700718  HIT:      36307  MISS:     664411
Insertion Distribution: 
	LOAD 0 0 76326 708756 
	RFO 0 0 13411 406628 
	PREF 0 0 93314 1054082 
	WRITEBACK 0 0 0 689584 
Total Prefetch Downgrades: 139
