
*** ChampSim Multicore Out-of-Order Simulator ***

Warmup Instructions: 10000000
Simulation Instructions: 100000000
Configuration: 2
Number of CPUs: 1
LLC sets: 2048
LLC ways: 16
Off-chip DRAM Channels: 1 Width: 64-bit Data Rate: 1600 MT/s

CPU 0 runs /datasets/cs240c-wi22-a00-public/data/Assignment2-gz/GemsFDTD_712B.trace.gz
CPU 0 L1D next line prefetcher
CPU 0 L2C IP-based stride prefetcher
Initialize SRRIP state
Heartbeat CPU 0 instructions: 1000003 cycles: 634340 heartbeat IPC: 1.57645 cumulative IPC: 1.57645 (Simulation time: 0 hr 0 min 37 sec) 
Heartbeat CPU 0 instructions: 2000000 cycles: 1268249 heartbeat IPC: 1.57751 cumulative IPC: 1.57698 (Simulation time: 0 hr 1 min 17 sec) 
Heartbeat CPU 0 instructions: 3000000 cycles: 1902209 heartbeat IPC: 1.57739 cumulative IPC: 1.57711 (Simulation time: 0 hr 1 min 55 sec) 
Heartbeat CPU 0 instructions: 4000000 cycles: 2535909 heartbeat IPC: 1.57803 cumulative IPC: 1.57734 (Simulation time: 0 hr 2 min 37 sec) 
Heartbeat CPU 0 instructions: 5000003 cycles: 3170061 heartbeat IPC: 1.57691 cumulative IPC: 1.57726 (Simulation time: 0 hr 3 min 19 sec) 
Heartbeat CPU 0 instructions: 6000002 cycles: 3803945 heartbeat IPC: 1.57757 cumulative IPC: 1.57731 (Simulation time: 0 hr 3 min 56 sec) 
Heartbeat CPU 0 instructions: 7000001 cycles: 4438087 heartbeat IPC: 1.57693 cumulative IPC: 1.57726 (Simulation time: 0 hr 4 min 35 sec) 
Heartbeat CPU 0 instructions: 8000000 cycles: 5071919 heartbeat IPC: 1.5777 cumulative IPC: 1.57731 (Simulation time: 0 hr 5 min 15 sec) 
Heartbeat CPU 0 instructions: 9000001 cycles: 5706039 heartbeat IPC: 1.57699 cumulative IPC: 1.57728 (Simulation time: 0 hr 5 min 52 sec) 
Heartbeat CPU 0 instructions: 10000002 cycles: 6339814 heartbeat IPC: 1.57785 cumulative IPC: 1.57733 (Simulation time: 0 hr 6 min 28 sec) 

Warmup complete CPU 0 instructions: 10000002 cycles: 6339814 (Simulation time: 0 hr 6 min 28 sec) 

Heartbeat CPU 0 instructions: 11000001 cycles: 7967722 heartbeat IPC: 0.614285 cumulative IPC: 0.614285 (Simulation time: 0 hr 7 min 17 sec) 
Heartbeat CPU 0 instructions: 12000000 cycles: 9604567 heartbeat IPC: 0.610931 cumulative IPC: 0.612603 (Simulation time: 0 hr 7 min 58 sec) 
Heartbeat CPU 0 instructions: 13000000 cycles: 11231413 heartbeat IPC: 0.614686 cumulative IPC: 0.613296 (Simulation time: 0 hr 8 min 40 sec) 
Heartbeat CPU 0 instructions: 14000001 cycles: 12843002 heartbeat IPC: 0.620506 cumulative IPC: 0.615083 (Simulation time: 0 hr 9 min 25 sec) 
Heartbeat CPU 0 instructions: 15000000 cycles: 14443347 heartbeat IPC: 0.624865 cumulative IPC: 0.617015 (Simulation time: 0 hr 10 min 12 sec) 
Heartbeat CPU 0 instructions: 16000000 cycles: 16075601 heartbeat IPC: 0.61265 cumulative IPC: 0.616283 (Simulation time: 0 hr 10 min 52 sec) 
Heartbeat CPU 0 instructions: 17000001 cycles: 17694467 heartbeat IPC: 0.617717 cumulative IPC: 0.616487 (Simulation time: 0 hr 11 min 32 sec) 
Heartbeat CPU 0 instructions: 18000001 cycles: 19334497 heartbeat IPC: 0.609745 cumulative IPC: 0.615636 (Simulation time: 0 hr 12 min 16 sec) 
Heartbeat CPU 0 instructions: 19000003 cycles: 20944069 heartbeat IPC: 0.621284 cumulative IPC: 0.616259 (Simulation time: 0 hr 12 min 59 sec) 
Heartbeat CPU 0 instructions: 20000000 cycles: 22547642 heartbeat IPC: 0.623606 cumulative IPC: 0.616986 (Simulation time: 0 hr 13 min 40 sec) 
Heartbeat CPU 0 instructions: 21000002 cycles: 24168419 heartbeat IPC: 0.616989 cumulative IPC: 0.616986 (Simulation time: 0 hr 14 min 25 sec) 
Heartbeat CPU 0 instructions: 22000001 cycles: 25796033 heartbeat IPC: 0.614396 cumulative IPC: 0.616769 (Simulation time: 0 hr 15 min 8 sec) 
Heartbeat CPU 0 instructions: 23000002 cycles: 27404906 heartbeat IPC: 0.621554 cumulative IPC: 0.617135 (Simulation time: 0 hr 15 min 52 sec) 
Heartbeat CPU 0 instructions: 24000000 cycles: 29049960 heartbeat IPC: 0.607882 cumulative IPC: 0.616464 (Simulation time: 0 hr 16 min 35 sec) 
Heartbeat CPU 0 instructions: 25000000 cycles: 30678237 heartbeat IPC: 0.614146 cumulative IPC: 0.616309 (Simulation time: 0 hr 17 min 16 sec) 
Heartbeat CPU 0 instructions: 26000002 cycles: 32291637 heartbeat IPC: 0.61981 cumulative IPC: 0.616527 (Simulation time: 0 hr 17 min 56 sec) 
Heartbeat CPU 0 instructions: 27000002 cycles: 33922767 heartbeat IPC: 0.613072 cumulative IPC: 0.616323 (Simulation time: 0 hr 18 min 38 sec) 
Heartbeat CPU 0 instructions: 28000000 cycles: 35533014 heartbeat IPC: 0.621022 cumulative IPC: 0.616582 (Simulation time: 0 hr 19 min 22 sec) 
Heartbeat CPU 0 instructions: 29000002 cycles: 37144011 heartbeat IPC: 0.620735 cumulative IPC: 0.616799 (Simulation time: 0 hr 20 min 3 sec) 
Heartbeat CPU 0 instructions: 30000003 cycles: 38748594 heartbeat IPC: 0.623215 cumulative IPC: 0.617117 (Simulation time: 0 hr 20 min 48 sec) 
Heartbeat CPU 0 instructions: 31000000 cycles: 40371829 heartbeat IPC: 0.616052 cumulative IPC: 0.617066 (Simulation time: 0 hr 21 min 32 sec) 
Heartbeat CPU 0 instructions: 32000000 cycles: 41998512 heartbeat IPC: 0.614748 cumulative IPC: 0.61696 (Simulation time: 0 hr 22 min 19 sec) 
Heartbeat CPU 0 instructions: 33000000 cycles: 43617357 heartbeat IPC: 0.617724 cumulative IPC: 0.616993 (Simulation time: 0 hr 23 min 1 sec) 
Heartbeat CPU 0 instructions: 34000001 cycles: 45206261 heartbeat IPC: 0.629365 cumulative IPC: 0.617499 (Simulation time: 0 hr 23 min 44 sec) 
Heartbeat CPU 0 instructions: 35000000 cycles: 46820231 heartbeat IPC: 0.61959 cumulative IPC: 0.617582 (Simulation time: 0 hr 24 min 26 sec) 
Heartbeat CPU 0 instructions: 36000000 cycles: 48440724 heartbeat IPC: 0.617096 cumulative IPC: 0.617564 (Simulation time: 0 hr 25 min 9 sec) 
Heartbeat CPU 0 instructions: 37000003 cycles: 50037084 heartbeat IPC: 0.626427 cumulative IPC: 0.617888 (Simulation time: 0 hr 25 min 51 sec) 
Heartbeat CPU 0 instructions: 38000003 cycles: 51636277 heartbeat IPC: 0.625315 cumulative IPC: 0.61815 (Simulation time: 0 hr 26 min 33 sec) 
Heartbeat CPU 0 instructions: 39000000 cycles: 53265794 heartbeat IPC: 0.613677 cumulative IPC: 0.617994 (Simulation time: 0 hr 27 min 15 sec) 
Heartbeat CPU 0 instructions: 40000000 cycles: 54852459 heartbeat IPC: 0.630253 cumulative IPC: 0.618395 (Simulation time: 0 hr 27 min 56 sec) 
Heartbeat CPU 0 instructions: 41000003 cycles: 56461319 heartbeat IPC: 0.62156 cumulative IPC: 0.618497 (Simulation time: 0 hr 28 min 37 sec) 
Heartbeat CPU 0 instructions: 42000000 cycles: 58083961 heartbeat IPC: 0.616277 cumulative IPC: 0.618427 (Simulation time: 0 hr 29 min 22 sec) 
Heartbeat CPU 0 instructions: 43000001 cycles: 59705605 heartbeat IPC: 0.616659 cumulative IPC: 0.618374 (Simulation time: 0 hr 30 min 3 sec) 
Heartbeat CPU 0 instructions: 44000000 cycles: 61309663 heartbeat IPC: 0.623418 cumulative IPC: 0.618521 (Simulation time: 0 hr 30 min 44 sec) 
Heartbeat CPU 0 instructions: 45000002 cycles: 62908163 heartbeat IPC: 0.625588 cumulative IPC: 0.618721 (Simulation time: 0 hr 31 min 30 sec) 
Heartbeat CPU 0 instructions: 46000000 cycles: 64496185 heartbeat IPC: 0.629713 cumulative IPC: 0.619021 (Simulation time: 0 hr 32 min 11 sec) 
Heartbeat CPU 0 instructions: 47000001 cycles: 66121077 heartbeat IPC: 0.615426 cumulative IPC: 0.618923 (Simulation time: 0 hr 32 min 54 sec) 
Heartbeat CPU 0 instructions: 48000000 cycles: 67739121 heartbeat IPC: 0.61803 cumulative IPC: 0.618899 (Simulation time: 0 hr 33 min 36 sec) 
Heartbeat CPU 0 instructions: 49000000 cycles: 69340352 heartbeat IPC: 0.62452 cumulative IPC: 0.619042 (Simulation time: 0 hr 34 min 20 sec) 
Heartbeat CPU 0 instructions: 50000001 cycles: 70963829 heartbeat IPC: 0.615963 cumulative IPC: 0.618965 (Simulation time: 0 hr 35 min 7 sec) 
Heartbeat CPU 0 instructions: 51000002 cycles: 72592519 heartbeat IPC: 0.613991 cumulative IPC: 0.618843 (Simulation time: 0 hr 35 min 56 sec) 
Heartbeat CPU 0 instructions: 52000000 cycles: 74207649 heartbeat IPC: 0.619144 cumulative IPC: 0.61885 (Simulation time: 0 hr 36 min 44 sec) 
Heartbeat CPU 0 instructions: 53000000 cycles: 75854975 heartbeat IPC: 0.607044 cumulative IPC: 0.61857 (Simulation time: 0 hr 37 min 30 sec) 
Heartbeat CPU 0 instructions: 54000000 cycles: 77450628 heartbeat IPC: 0.626703 cumulative IPC: 0.618753 (Simulation time: 0 hr 38 min 14 sec) 
Heartbeat CPU 0 instructions: 55000000 cycles: 79044680 heartbeat IPC: 0.627332 cumulative IPC: 0.618941 (Simulation time: 0 hr 39 min 1 sec) 
Heartbeat CPU 0 instructions: 56000000 cycles: 80668544 heartbeat IPC: 0.615815 cumulative IPC: 0.618872 (Simulation time: 0 hr 39 min 44 sec) 
Heartbeat CPU 0 instructions: 57000000 cycles: 82327931 heartbeat IPC: 0.602632 cumulative IPC: 0.618518 (Simulation time: 0 hr 40 min 27 sec) 
Heartbeat CPU 0 instructions: 58000001 cycles: 83948019 heartbeat IPC: 0.617251 cumulative IPC: 0.618491 (Simulation time: 0 hr 41 min 10 sec) 
Heartbeat CPU 0 instructions: 59000001 cycles: 85567636 heartbeat IPC: 0.61743 cumulative IPC: 0.61847 (Simulation time: 0 hr 41 min 57 sec) 
Heartbeat CPU 0 instructions: 60000000 cycles: 87199728 heartbeat IPC: 0.61271 cumulative IPC: 0.618353 (Simulation time: 0 hr 42 min 39 sec) 
Heartbeat CPU 0 instructions: 61000001 cycles: 88792038 heartbeat IPC: 0.628019 cumulative IPC: 0.61854 (Simulation time: 0 hr 43 min 22 sec) 
Heartbeat CPU 0 instructions: 62000000 cycles: 90389490 heartbeat IPC: 0.625996 cumulative IPC: 0.618682 (Simulation time: 0 hr 44 min 4 sec) 
Heartbeat CPU 0 instructions: 63000003 cycles: 92013616 heartbeat IPC: 0.615718 cumulative IPC: 0.618626 (Simulation time: 0 hr 44 min 53 sec) 
Heartbeat CPU 0 instructions: 64000000 cycles: 93637371 heartbeat IPC: 0.615855 cumulative IPC: 0.618574 (Simulation time: 0 hr 45 min 37 sec) 
Heartbeat CPU 0 instructions: 65000003 cycles: 95271096 heartbeat IPC: 0.6121 cumulative IPC: 0.618455 (Simulation time: 0 hr 46 min 22 sec) 
Heartbeat CPU 0 instructions: 66000000 cycles: 96867507 heartbeat IPC: 0.626403 cumulative IPC: 0.618595 (Simulation time: 0 hr 47 min 8 sec) 
Heartbeat CPU 0 instructions: 67000000 cycles: 98469730 heartbeat IPC: 0.624133 cumulative IPC: 0.618692 (Simulation time: 0 hr 47 min 57 sec) 
Heartbeat CPU 0 instructions: 68000000 cycles: 100076704 heartbeat IPC: 0.622288 cumulative IPC: 0.618753 (Simulation time: 0 hr 48 min 39 sec) 
Heartbeat CPU 0 instructions: 69000003 cycles: 101665039 heartbeat IPC: 0.629592 cumulative IPC: 0.618934 (Simulation time: 0 hr 49 min 22 sec) 
Heartbeat CPU 0 instructions: 70000002 cycles: 103303771 heartbeat IPC: 0.610227 cumulative IPC: 0.618787 (Simulation time: 0 hr 50 min 5 sec) 
Heartbeat CPU 0 instructions: 71000002 cycles: 104953410 heartbeat IPC: 0.606193 cumulative IPC: 0.618576 (Simulation time: 0 hr 50 min 45 sec) 
Heartbeat CPU 0 instructions: 72000000 cycles: 106673535 heartbeat IPC: 0.581352 cumulative IPC: 0.617938 (Simulation time: 0 hr 51 min 27 sec) 
Heartbeat CPU 0 instructions: 73000000 cycles: 108385040 heartbeat IPC: 0.584281 cumulative IPC: 0.617373 (Simulation time: 0 hr 52 min 11 sec) 
Heartbeat CPU 0 instructions: 74000001 cycles: 110113143 heartbeat IPC: 0.57867 cumulative IPC: 0.616729 (Simulation time: 0 hr 53 min 0 sec) 
Heartbeat CPU 0 instructions: 75000003 cycles: 111816847 heartbeat IPC: 0.586958 cumulative IPC: 0.616248 (Simulation time: 0 hr 53 min 41 sec) 
Heartbeat CPU 0 instructions: 76000000 cycles: 113504988 heartbeat IPC: 0.592366 cumulative IPC: 0.615872 (Simulation time: 0 hr 54 min 24 sec) 
Heartbeat CPU 0 instructions: 77000000 cycles: 115212555 heartbeat IPC: 0.585629 cumulative IPC: 0.615397 (Simulation time: 0 hr 55 min 1 sec) 
Heartbeat CPU 0 instructions: 78000001 cycles: 116904352 heartbeat IPC: 0.591088 cumulative IPC: 0.615025 (Simulation time: 0 hr 55 min 38 sec) 
Heartbeat CPU 0 instructions: 79000003 cycles: 118610801 heartbeat IPC: 0.586013 cumulative IPC: 0.614584 (Simulation time: 0 hr 56 min 12 sec) 
Heartbeat CPU 0 instructions: 80000000 cycles: 120342449 heartbeat IPC: 0.577483 cumulative IPC: 0.614021 (Simulation time: 0 hr 56 min 42 sec) 
Heartbeat CPU 0 instructions: 81000001 cycles: 122063369 heartbeat IPC: 0.581085 cumulative IPC: 0.613531 (Simulation time: 0 hr 57 min 13 sec) 
Heartbeat CPU 0 instructions: 82000000 cycles: 123786629 heartbeat IPC: 0.580295 cumulative IPC: 0.613043 (Simulation time: 0 hr 57 min 44 sec) 
Heartbeat CPU 0 instructions: 83000001 cycles: 125496132 heartbeat IPC: 0.584966 cumulative IPC: 0.612641 (Simulation time: 0 hr 58 min 12 sec) 
Heartbeat CPU 0 instructions: 84000000 cycles: 127216188 heartbeat IPC: 0.581376 cumulative IPC: 0.612196 (Simulation time: 0 hr 58 min 38 sec) 
Heartbeat CPU 0 instructions: 85000000 cycles: 128934750 heartbeat IPC: 0.581882 cumulative IPC: 0.611771 (Simulation time: 0 hr 59 min 4 sec) 
Heartbeat CPU 0 instructions: 86000000 cycles: 130643071 heartbeat IPC: 0.58537 cumulative IPC: 0.611408 (Simulation time: 0 hr 59 min 30 sec) 
Heartbeat CPU 0 instructions: 87000001 cycles: 132367452 heartbeat IPC: 0.579919 cumulative IPC: 0.610977 (Simulation time: 0 hr 59 min 56 sec) 
Heartbeat CPU 0 instructions: 88000000 cycles: 134081744 heartbeat IPC: 0.583331 cumulative IPC: 0.610606 (Simulation time: 1 hr 0 min 21 sec) 
Heartbeat CPU 0 instructions: 89000003 cycles: 135803237 heartbeat IPC: 0.580893 cumulative IPC: 0.610211 (Simulation time: 1 hr 0 min 44 sec) 
Heartbeat CPU 0 instructions: 90000000 cycles: 137525304 heartbeat IPC: 0.580696 cumulative IPC: 0.609824 (Simulation time: 1 hr 1 min 9 sec) 
Heartbeat CPU 0 instructions: 91000001 cycles: 139222700 heartbeat IPC: 0.589138 cumulative IPC: 0.609559 (Simulation time: 1 hr 1 min 33 sec) 
Heartbeat CPU 0 instructions: 92000000 cycles: 140928748 heartbeat IPC: 0.586149 cumulative IPC: 0.609263 (Simulation time: 1 hr 1 min 56 sec) 
Heartbeat CPU 0 instructions: 93000003 cycles: 142635787 heartbeat IPC: 0.585811 cumulative IPC: 0.608969 (Simulation time: 1 hr 2 min 14 sec) 
Heartbeat CPU 0 instructions: 94000002 cycles: 144349175 heartbeat IPC: 0.583638 cumulative IPC: 0.608654 (Simulation time: 1 hr 2 min 34 sec) 
Heartbeat CPU 0 instructions: 95000001 cycles: 146071906 heartbeat IPC: 0.580473 cumulative IPC: 0.608307 (Simulation time: 1 hr 2 min 52 sec) 
Heartbeat CPU 0 instructions: 96000000 cycles: 147782341 heartbeat IPC: 0.584646 cumulative IPC: 0.608021 (Simulation time: 1 hr 3 min 9 sec) 
Heartbeat CPU 0 instructions: 97000003 cycles: 149497379 heartbeat IPC: 0.583079 cumulative IPC: 0.607722 (Simulation time: 1 hr 3 min 26 sec) 
Heartbeat CPU 0 instructions: 98000000 cycles: 151212352 heartbeat IPC: 0.583098 cumulative IPC: 0.607431 (Simulation time: 1 hr 3 min 41 sec) 
Heartbeat CPU 0 instructions: 99000001 cycles: 152924800 heartbeat IPC: 0.58396 cumulative IPC: 0.607156 (Simulation time: 1 hr 3 min 56 sec) 
Heartbeat CPU 0 instructions: 100000000 cycles: 154646975 heartbeat IPC: 0.580661 cumulative IPC: 0.606849 (Simulation time: 1 hr 4 min 10 sec) 
Heartbeat CPU 0 instructions: 101000001 cycles: 156361888 heartbeat IPC: 0.583121 cumulative IPC: 0.606577 (Simulation time: 1 hr 4 min 23 sec) 
Heartbeat CPU 0 instructions: 102000002 cycles: 158076002 heartbeat IPC: 0.583392 cumulative IPC: 0.606315 (Simulation time: 1 hr 4 min 35 sec) 
Heartbeat CPU 0 instructions: 103000000 cycles: 159781764 heartbeat IPC: 0.586247 cumulative IPC: 0.606092 (Simulation time: 1 hr 4 min 46 sec) 
Heartbeat CPU 0 instructions: 104000000 cycles: 161489602 heartbeat IPC: 0.585536 cumulative IPC: 0.605866 (Simulation time: 1 hr 4 min 56 sec) 
Heartbeat CPU 0 instructions: 105000000 cycles: 163188925 heartbeat IPC: 0.58847 cumulative IPC: 0.605678 (Simulation time: 1 hr 5 min 5 sec) 
Heartbeat CPU 0 instructions: 106000002 cycles: 164883819 heartbeat IPC: 0.590009 cumulative IPC: 0.60551 (Simulation time: 1 hr 5 min 12 sec) 
Heartbeat CPU 0 instructions: 107000000 cycles: 166599236 heartbeat IPC: 0.582947 cumulative IPC: 0.605269 (Simulation time: 1 hr 5 min 19 sec) 
Heartbeat CPU 0 instructions: 108000000 cycles: 168306302 heartbeat IPC: 0.5858 cumulative IPC: 0.605063 (Simulation time: 1 hr 5 min 25 sec) 
Heartbeat CPU 0 instructions: 109000003 cycles: 170027874 heartbeat IPC: 0.580866 cumulative IPC: 0.604809 (Simulation time: 1 hr 5 min 32 sec) 
Heartbeat CPU 0 instructions: 110000001 cycles: 171736248 heartbeat IPC: 0.585351 cumulative IPC: 0.604608 (Simulation time: 1 hr 5 min 38 sec) 
Finished CPU 0 instructions: 100000003 cycles: 165396435 cummulative IPC: 0.604608 (Simulation time: 1 hr 5 min 38 sec) 

ChampSim completed all CPUs

Region of Interest Statistics

CPU 0 cummulative IPC: 0.604608 instructions: 100000003 cycles: 165396435
LLC TOTAL     ACCESS:    5145136  HIT:     233299  MISS:    4911837
LLC LOAD      ACCESS:     521582  HIT:     117496  MISS:     404086
LLC RFO       ACCESS:         18  HIT:          0  MISS:         18
LLC PREFETCH  ACCESS:    3246236  HIT:      38783  MISS:    3207453
LLC WRITEBACK ACCESS:    1377300  HIT:      77020  MISS:    1300280
Insertion Distribution: 
	LOAD 125098 0 16757 279024 
	RFO 0 0 18 0 
	PREF 0 7101 38870 3533529 
	WRITEBACK 0 0 0 1427072 
Total Prefetch Downgrades: 5593
