
*** ChampSim Multicore Out-of-Order Simulator ***

Warmup Instructions: 10000000
Simulation Instructions: 100000000
Configuration: 2
Number of CPUs: 1
LLC sets: 2048
LLC ways: 16
Off-chip DRAM Channels: 1 Width: 64-bit Data Rate: 1600 MT/s

CPU 0 runs /datasets/cs240c-wi22-a00-public/data/Assignment2-gz/zeusmp_300B.trace.gz
CPU 0 L1D next line prefetcher
CPU 0 L2C IP-based stride prefetcher
Initialize SRRIP state
Heartbeat CPU 0 instructions: 1000003 cycles: 509580 heartbeat IPC: 1.96241 cumulative IPC: 1.96241 (Simulation time: 0 hr 0 min 30 sec) 
Heartbeat CPU 0 instructions: 2000003 cycles: 1062140 heartbeat IPC: 1.80976 cumulative IPC: 1.88299 (Simulation time: 0 hr 0 min 59 sec) 
Heartbeat CPU 0 instructions: 3000002 cycles: 1606379 heartbeat IPC: 1.83743 cumulative IPC: 1.86756 (Simulation time: 0 hr 1 min 29 sec) 
Heartbeat CPU 0 instructions: 4000000 cycles: 2093170 heartbeat IPC: 2.05427 cumulative IPC: 1.91098 (Simulation time: 0 hr 1 min 58 sec) 
Heartbeat CPU 0 instructions: 5000001 cycles: 2575851 heartbeat IPC: 2.07176 cumulative IPC: 1.94111 (Simulation time: 0 hr 2 min 26 sec) 
Heartbeat CPU 0 instructions: 6000000 cycles: 3062544 heartbeat IPC: 2.05468 cumulative IPC: 1.95916 (Simulation time: 0 hr 2 min 54 sec) 
Heartbeat CPU 0 instructions: 7000001 cycles: 3590710 heartbeat IPC: 1.89335 cumulative IPC: 1.94948 (Simulation time: 0 hr 3 min 22 sec) 
Heartbeat CPU 0 instructions: 8000000 cycles: 4144726 heartbeat IPC: 1.805 cumulative IPC: 1.93016 (Simulation time: 0 hr 3 min 52 sec) 
Heartbeat CPU 0 instructions: 9000000 cycles: 4672519 heartbeat IPC: 1.89468 cumulative IPC: 1.92616 (Simulation time: 0 hr 4 min 20 sec) 
Heartbeat CPU 0 instructions: 10000002 cycles: 5158854 heartbeat IPC: 2.0562 cumulative IPC: 1.93842 (Simulation time: 0 hr 4 min 47 sec) 

Warmup complete CPU 0 instructions: 10000002 cycles: 5158854 (Simulation time: 0 hr 4 min 47 sec) 

Heartbeat CPU 0 instructions: 11000003 cycles: 5860923 heartbeat IPC: 1.42436 cumulative IPC: 1.42436 (Simulation time: 0 hr 5 min 18 sec) 
Heartbeat CPU 0 instructions: 12000000 cycles: 6557285 heartbeat IPC: 1.43603 cumulative IPC: 1.43017 (Simulation time: 0 hr 5 min 50 sec) 
Heartbeat CPU 0 instructions: 13000000 cycles: 7362753 heartbeat IPC: 1.24151 cumulative IPC: 1.36122 (Simulation time: 0 hr 6 min 22 sec) 
Heartbeat CPU 0 instructions: 14000000 cycles: 8176522 heartbeat IPC: 1.22885 cumulative IPC: 1.32553 (Simulation time: 0 hr 6 min 52 sec) 
Heartbeat CPU 0 instructions: 15000002 cycles: 8909214 heartbeat IPC: 1.36483 cumulative IPC: 1.33321 (Simulation time: 0 hr 7 min 22 sec) 
Heartbeat CPU 0 instructions: 16000000 cycles: 9601996 heartbeat IPC: 1.44345 cumulative IPC: 1.3504 (Simulation time: 0 hr 7 min 50 sec) 
Heartbeat CPU 0 instructions: 17000003 cycles: 10300292 heartbeat IPC: 1.43206 cumulative IPC: 1.36149 (Simulation time: 0 hr 8 min 20 sec) 
Heartbeat CPU 0 instructions: 18000000 cycles: 11005614 heartbeat IPC: 1.41779 cumulative IPC: 1.36828 (Simulation time: 0 hr 8 min 48 sec) 
Heartbeat CPU 0 instructions: 19000003 cycles: 11823188 heartbeat IPC: 1.22313 cumulative IPC: 1.35047 (Simulation time: 0 hr 9 min 19 sec) 
Heartbeat CPU 0 instructions: 20000000 cycles: 12635720 heartbeat IPC: 1.23072 cumulative IPC: 1.33746 (Simulation time: 0 hr 9 min 48 sec) 
Heartbeat CPU 0 instructions: 21000001 cycles: 13336005 heartbeat IPC: 1.42799 cumulative IPC: 1.34521 (Simulation time: 0 hr 10 min 19 sec) 
Heartbeat CPU 0 instructions: 22000000 cycles: 14030662 heartbeat IPC: 1.43956 cumulative IPC: 1.3526 (Simulation time: 0 hr 10 min 54 sec) 
Heartbeat CPU 0 instructions: 23000001 cycles: 14725299 heartbeat IPC: 1.4396 cumulative IPC: 1.35892 (Simulation time: 0 hr 11 min 26 sec) 
Heartbeat CPU 0 instructions: 24000000 cycles: 15462625 heartbeat IPC: 1.35625 cumulative IPC: 1.35873 (Simulation time: 0 hr 11 min 56 sec) 
Heartbeat CPU 0 instructions: 25000000 cycles: 16274962 heartbeat IPC: 1.23102 cumulative IPC: 1.34939 (Simulation time: 0 hr 12 min 27 sec) 
Heartbeat CPU 0 instructions: 26000000 cycles: 17081989 heartbeat IPC: 1.23912 cumulative IPC: 1.34193 (Simulation time: 0 hr 12 min 58 sec) 
Heartbeat CPU 0 instructions: 27000002 cycles: 17779214 heartbeat IPC: 1.43426 cumulative IPC: 1.34703 (Simulation time: 0 hr 13 min 28 sec) 
Heartbeat CPU 0 instructions: 28000000 cycles: 18482050 heartbeat IPC: 1.4228 cumulative IPC: 1.35103 (Simulation time: 0 hr 13 min 58 sec) 
Heartbeat CPU 0 instructions: 29000003 cycles: 19184324 heartbeat IPC: 1.42395 cumulative IPC: 1.35468 (Simulation time: 0 hr 14 min 28 sec) 
Heartbeat CPU 0 instructions: 30000002 cycles: 19955180 heartbeat IPC: 1.29726 cumulative IPC: 1.35169 (Simulation time: 0 hr 14 min 57 sec) 
Heartbeat CPU 0 instructions: 31000001 cycles: 20772271 heartbeat IPC: 1.22385 cumulative IPC: 1.345 (Simulation time: 0 hr 15 min 29 sec) 
Heartbeat CPU 0 instructions: 32000000 cycles: 21543547 heartbeat IPC: 1.29655 cumulative IPC: 1.34272 (Simulation time: 0 hr 15 min 58 sec) 
Heartbeat CPU 0 instructions: 33000000 cycles: 22234738 heartbeat IPC: 1.44678 cumulative IPC: 1.34693 (Simulation time: 0 hr 16 min 25 sec) 
Heartbeat CPU 0 instructions: 34000000 cycles: 22939322 heartbeat IPC: 1.41928 cumulative IPC: 1.3498 (Simulation time: 0 hr 16 min 54 sec) 
Heartbeat CPU 0 instructions: 35000002 cycles: 23637308 heartbeat IPC: 1.4327 cumulative IPC: 1.35293 (Simulation time: 0 hr 17 min 23 sec) 
Heartbeat CPU 0 instructions: 36000000 cycles: 24429756 heartbeat IPC: 1.26191 cumulative IPC: 1.34918 (Simulation time: 0 hr 17 min 53 sec) 
Heartbeat CPU 0 instructions: 37000003 cycles: 25245367 heartbeat IPC: 1.22608 cumulative IPC: 1.34419 (Simulation time: 0 hr 18 min 23 sec) 
Heartbeat CPU 0 instructions: 38000001 cycles: 25990011 heartbeat IPC: 1.34292 cumulative IPC: 1.34414 (Simulation time: 0 hr 18 min 52 sec) 
Heartbeat CPU 0 instructions: 39000002 cycles: 26683245 heartbeat IPC: 1.44252 cumulative IPC: 1.34731 (Simulation time: 0 hr 19 min 23 sec) 
Heartbeat CPU 0 instructions: 40000000 cycles: 27386441 heartbeat IPC: 1.42208 cumulative IPC: 1.34967 (Simulation time: 0 hr 19 min 54 sec) 
Heartbeat CPU 0 instructions: 41000001 cycles: 28081121 heartbeat IPC: 1.43951 cumulative IPC: 1.3524 (Simulation time: 0 hr 20 min 23 sec) 
Heartbeat CPU 0 instructions: 42000001 cycles: 28904486 heartbeat IPC: 1.21453 cumulative IPC: 1.34762 (Simulation time: 0 hr 20 min 53 sec) 
Heartbeat CPU 0 instructions: 43000000 cycles: 29715153 heartbeat IPC: 1.23355 cumulative IPC: 1.34385 (Simulation time: 0 hr 21 min 23 sec) 
Heartbeat CPU 0 instructions: 44000000 cycles: 30433020 heartbeat IPC: 1.39302 cumulative IPC: 1.34525 (Simulation time: 0 hr 21 min 55 sec) 
Heartbeat CPU 0 instructions: 45000002 cycles: 31131326 heartbeat IPC: 1.43204 cumulative IPC: 1.34758 (Simulation time: 0 hr 22 min 32 sec) 
Heartbeat CPU 0 instructions: 46000002 cycles: 31832835 heartbeat IPC: 1.4255 cumulative IPC: 1.34963 (Simulation time: 0 hr 23 min 4 sec) 
Heartbeat CPU 0 instructions: 47000001 cycles: 32565386 heartbeat IPC: 1.36509 cumulative IPC: 1.35004 (Simulation time: 0 hr 23 min 38 sec) 
Heartbeat CPU 0 instructions: 48000000 cycles: 33378728 heartbeat IPC: 1.22949 cumulative IPC: 1.34657 (Simulation time: 0 hr 24 min 10 sec) 
Heartbeat CPU 0 instructions: 49000003 cycles: 34185385 heartbeat IPC: 1.23969 cumulative IPC: 1.3436 (Simulation time: 0 hr 24 min 40 sec) 
Heartbeat CPU 0 instructions: 50000001 cycles: 34874465 heartbeat IPC: 1.45121 cumulative IPC: 1.34609 (Simulation time: 0 hr 25 min 9 sec) 
Heartbeat CPU 0 instructions: 51000002 cycles: 35567892 heartbeat IPC: 1.44211 cumulative IPC: 1.34828 (Simulation time: 0 hr 25 min 39 sec) 
Heartbeat CPU 0 instructions: 52000000 cycles: 36262841 heartbeat IPC: 1.43895 cumulative IPC: 1.35031 (Simulation time: 0 hr 26 min 12 sec) 
Heartbeat CPU 0 instructions: 53000000 cycles: 37015288 heartbeat IPC: 1.329 cumulative IPC: 1.34981 (Simulation time: 0 hr 26 min 43 sec) 
Heartbeat CPU 0 instructions: 54000002 cycles: 37827534 heartbeat IPC: 1.23116 cumulative IPC: 1.34686 (Simulation time: 0 hr 27 min 15 sec) 
Heartbeat CPU 0 instructions: 55000001 cycles: 38606130 heartbeat IPC: 1.28436 cumulative IPC: 1.3454 (Simulation time: 0 hr 27 min 45 sec) 
Heartbeat CPU 0 instructions: 56000000 cycles: 39300318 heartbeat IPC: 1.44053 cumulative IPC: 1.34734 (Simulation time: 0 hr 28 min 15 sec) 
Heartbeat CPU 0 instructions: 57000000 cycles: 40000359 heartbeat IPC: 1.42849 cumulative IPC: 1.34897 (Simulation time: 0 hr 28 min 45 sec) 
Heartbeat CPU 0 instructions: 58000000 cycles: 40697682 heartbeat IPC: 1.43406 cumulative IPC: 1.35064 (Simulation time: 0 hr 29 min 16 sec) 
Heartbeat CPU 0 instructions: 59000003 cycles: 41479195 heartbeat IPC: 1.27957 cumulative IPC: 1.34911 (Simulation time: 0 hr 29 min 49 sec) 
Heartbeat CPU 0 instructions: 60000000 cycles: 42291812 heartbeat IPC: 1.23059 cumulative IPC: 1.34651 (Simulation time: 0 hr 30 min 18 sec) 
Heartbeat CPU 0 instructions: 61000000 cycles: 43046215 heartbeat IPC: 1.32555 cumulative IPC: 1.3461 (Simulation time: 0 hr 30 min 51 sec) 
Heartbeat CPU 0 instructions: 62000002 cycles: 43747758 heartbeat IPC: 1.42543 cumulative IPC: 1.34754 (Simulation time: 0 hr 31 min 23 sec) 
Heartbeat CPU 0 instructions: 63000003 cycles: 44452618 heartbeat IPC: 1.41872 cumulative IPC: 1.34881 (Simulation time: 0 hr 31 min 54 sec) 
Heartbeat CPU 0 instructions: 64000000 cycles: 45153003 heartbeat IPC: 1.42778 cumulative IPC: 1.3502 (Simulation time: 0 hr 32 min 23 sec) 
Heartbeat CPU 0 instructions: 65000003 cycles: 45967257 heartbeat IPC: 1.22812 cumulative IPC: 1.34776 (Simulation time: 0 hr 32 min 54 sec) 
Heartbeat CPU 0 instructions: 66000003 cycles: 46779633 heartbeat IPC: 1.23096 cumulative IPC: 1.34548 (Simulation time: 0 hr 33 min 27 sec) 
Heartbeat CPU 0 instructions: 67000002 cycles: 47506002 heartbeat IPC: 1.37671 cumulative IPC: 1.34602 (Simulation time: 0 hr 33 min 59 sec) 
Heartbeat CPU 0 instructions: 68000000 cycles: 48202367 heartbeat IPC: 1.43603 cumulative IPC: 1.34747 (Simulation time: 0 hr 34 min 29 sec) 
Heartbeat CPU 0 instructions: 69000000 cycles: 48902920 heartbeat IPC: 1.42744 cumulative IPC: 1.34875 (Simulation time: 0 hr 34 min 59 sec) 
Heartbeat CPU 0 instructions: 70000001 cycles: 49630010 heartbeat IPC: 1.37535 cumulative IPC: 1.34919 (Simulation time: 0 hr 35 min 30 sec) 
Heartbeat CPU 0 instructions: 71000001 cycles: 50438460 heartbeat IPC: 1.23693 cumulative IPC: 1.34718 (Simulation time: 0 hr 36 min 2 sec) 
Heartbeat CPU 0 instructions: 72000000 cycles: 51249642 heartbeat IPC: 1.23277 cumulative IPC: 1.34517 (Simulation time: 0 hr 36 min 40 sec) 
Heartbeat CPU 0 instructions: 73000003 cycles: 51955253 heartbeat IPC: 1.41722 cumulative IPC: 1.34626 (Simulation time: 0 hr 37 min 12 sec) 
Heartbeat CPU 0 instructions: 74000001 cycles: 52659416 heartbeat IPC: 1.42012 cumulative IPC: 1.34735 (Simulation time: 0 hr 37 min 47 sec) 
Heartbeat CPU 0 instructions: 75000003 cycles: 53365429 heartbeat IPC: 1.41641 cumulative IPC: 1.34836 (Simulation time: 0 hr 38 min 19 sec) 
Heartbeat CPU 0 instructions: 76000000 cycles: 54122723 heartbeat IPC: 1.32049 cumulative IPC: 1.34793 (Simulation time: 0 hr 38 min 49 sec) 
Heartbeat CPU 0 instructions: 77000001 cycles: 54935547 heartbeat IPC: 1.23028 cumulative IPC: 1.34601 (Simulation time: 0 hr 39 min 20 sec) 
Heartbeat CPU 0 instructions: 78000003 cycles: 55723345 heartbeat IPC: 1.26936 cumulative IPC: 1.34482 (Simulation time: 0 hr 39 min 53 sec) 
Heartbeat CPU 0 instructions: 79000001 cycles: 56418116 heartbeat IPC: 1.43932 cumulative IPC: 1.3461 (Simulation time: 0 hr 40 min 25 sec) 
Heartbeat CPU 0 instructions: 80000000 cycles: 57116230 heartbeat IPC: 1.43243 cumulative IPC: 1.34726 (Simulation time: 0 hr 40 min 59 sec) 
Heartbeat CPU 0 instructions: 81000000 cycles: 57817767 heartbeat IPC: 1.42544 cumulative IPC: 1.3483 (Simulation time: 0 hr 41 min 30 sec) 
Heartbeat CPU 0 instructions: 82000002 cycles: 58594331 heartbeat IPC: 1.28773 cumulative IPC: 1.34742 (Simulation time: 0 hr 42 min 3 sec) 
Heartbeat CPU 0 instructions: 83000001 cycles: 59405586 heartbeat IPC: 1.23266 cumulative IPC: 1.3457 (Simulation time: 0 hr 42 min 39 sec) 
Heartbeat CPU 0 instructions: 84000000 cycles: 60170094 heartbeat IPC: 1.30803 cumulative IPC: 1.34518 (Simulation time: 0 hr 43 min 13 sec) 
Heartbeat CPU 0 instructions: 85000001 cycles: 60873367 heartbeat IPC: 1.42192 cumulative IPC: 1.34615 (Simulation time: 0 hr 43 min 45 sec) 
Heartbeat CPU 0 instructions: 86000002 cycles: 61582093 heartbeat IPC: 1.41098 cumulative IPC: 1.34696 (Simulation time: 0 hr 44 min 17 sec) 
Heartbeat CPU 0 instructions: 87000000 cycles: 62287551 heartbeat IPC: 1.41752 cumulative IPC: 1.34783 (Simulation time: 0 hr 44 min 52 sec) 
Heartbeat CPU 0 instructions: 88000000 cycles: 63092334 heartbeat IPC: 1.24257 cumulative IPC: 1.34637 (Simulation time: 0 hr 45 min 29 sec) 
Heartbeat CPU 0 instructions: 89000000 cycles: 63905206 heartbeat IPC: 1.23021 cumulative IPC: 1.34476 (Simulation time: 0 hr 46 min 5 sec) 
Heartbeat CPU 0 instructions: 90000002 cycles: 64644155 heartbeat IPC: 1.35328 cumulative IPC: 1.34487 (Simulation time: 0 hr 46 min 36 sec) 
Heartbeat CPU 0 instructions: 91000002 cycles: 65347686 heartbeat IPC: 1.4214 cumulative IPC: 1.34576 (Simulation time: 0 hr 47 min 8 sec) 
Heartbeat CPU 0 instructions: 92000000 cycles: 66055976 heartbeat IPC: 1.41185 cumulative IPC: 1.34653 (Simulation time: 0 hr 47 min 40 sec) 
Heartbeat CPU 0 instructions: 93000001 cycles: 66763008 heartbeat IPC: 1.41436 cumulative IPC: 1.34731 (Simulation time: 0 hr 48 min 11 sec) 
Heartbeat CPU 0 instructions: 94000000 cycles: 67592559 heartbeat IPC: 1.20547 cumulative IPC: 1.34543 (Simulation time: 0 hr 48 min 44 sec) 
Heartbeat CPU 0 instructions: 95000003 cycles: 68404690 heartbeat IPC: 1.23133 cumulative IPC: 1.34396 (Simulation time: 0 hr 49 min 19 sec) 
Heartbeat CPU 0 instructions: 96000000 cycles: 69118727 heartbeat IPC: 1.40048 cumulative IPC: 1.34459 (Simulation time: 0 hr 49 min 56 sec) 
Heartbeat CPU 0 instructions: 97000001 cycles: 69822988 heartbeat IPC: 1.41993 cumulative IPC: 1.34541 (Simulation time: 0 hr 50 min 28 sec) 
Heartbeat CPU 0 instructions: 98000000 cycles: 70527347 heartbeat IPC: 1.41973 cumulative IPC: 1.34621 (Simulation time: 0 hr 50 min 55 sec) 
Heartbeat CPU 0 instructions: 99000001 cycles: 71272087 heartbeat IPC: 1.34275 cumulative IPC: 1.34618 (Simulation time: 0 hr 51 min 23 sec) 
Heartbeat CPU 0 instructions: 100000000 cycles: 72085464 heartbeat IPC: 1.22944 cumulative IPC: 1.34476 (Simulation time: 0 hr 51 min 54 sec) 
Heartbeat CPU 0 instructions: 101000001 cycles: 72887769 heartbeat IPC: 1.24641 cumulative IPC: 1.34359 (Simulation time: 0 hr 52 min 22 sec) 
Heartbeat CPU 0 instructions: 102000003 cycles: 73576616 heartbeat IPC: 1.4517 cumulative IPC: 1.34468 (Simulation time: 0 hr 52 min 50 sec) 
Heartbeat CPU 0 instructions: 103000003 cycles: 74267620 heartbeat IPC: 1.44717 cumulative IPC: 1.3457 (Simulation time: 0 hr 53 min 21 sec) 
Heartbeat CPU 0 instructions: 104000000 cycles: 74959247 heartbeat IPC: 1.44586 cumulative IPC: 1.3467 (Simulation time: 0 hr 53 min 48 sec) 
Heartbeat CPU 0 instructions: 105000001 cycles: 75729515 heartbeat IPC: 1.29825 cumulative IPC: 1.34617 (Simulation time: 0 hr 54 min 14 sec) 
Heartbeat CPU 0 instructions: 106000002 cycles: 76537620 heartbeat IPC: 1.23746 cumulative IPC: 1.34494 (Simulation time: 0 hr 54 min 39 sec) 
Heartbeat CPU 0 instructions: 107000003 cycles: 77312703 heartbeat IPC: 1.29019 cumulative IPC: 1.34435 (Simulation time: 0 hr 55 min 2 sec) 
Heartbeat CPU 0 instructions: 108000000 cycles: 78010771 heartbeat IPC: 1.43252 cumulative IPC: 1.34519 (Simulation time: 0 hr 55 min 25 sec) 
Heartbeat CPU 0 instructions: 109000001 cycles: 78710842 heartbeat IPC: 1.42843 cumulative IPC: 1.34599 (Simulation time: 0 hr 55 min 48 sec) 
Heartbeat CPU 0 instructions: 110000000 cycles: 79412930 heartbeat IPC: 1.42432 cumulative IPC: 1.34673 (Simulation time: 0 hr 56 min 13 sec) 
Finished CPU 0 instructions: 100000002 cycles: 74254077 cummulative IPC: 1.34673 (Simulation time: 0 hr 56 min 13 sec) 

ChampSim completed all CPUs

Region of Interest Statistics

CPU 0 cummulative IPC: 1.34673 instructions: 100000002 cycles: 74254077
LLC TOTAL     ACCESS:     632009  HIT:     275205  MISS:     356804
LLC LOAD      ACCESS:      36810  HIT:      17251  MISS:      19559
LLC RFO       ACCESS:     152066  HIT:      75414  MISS:      76652
LLC PREFETCH  ACCESS:     287326  HIT:      86192  MISS:     201134
LLC WRITEBACK ACCESS:     155807  HIT:      96348  MISS:      59459
Insertion Distribution: 
	LOAD 1765 0 4616 15084 
	RFO 318 0 5223 81665 
	PREF 0 7598 38684 178315 
	WRITEBACK 0 0 0 64249 
Total Prefetch Downgrades: 17245
