
*** ChampSim Multicore Out-of-Order Simulator ***

Warmup Instructions: 10000000
Simulation Instructions: 100000000
Configuration: 2
Number of CPUs: 1
LLC sets: 2048
LLC ways: 16
Off-chip DRAM Channels: 1 Width: 64-bit Data Rate: 1600 MT/s

CPU 0 runs /datasets/cs240c-wi22-a00-public/data/Assignment2-gz/soplex_66B.trace.gz
CPU 0 L1D next line prefetcher
CPU 0 L2C IP-based stride prefetcher
Initialize SRRIP state
Heartbeat CPU 0 instructions: 1000003 cycles: 415081 heartbeat IPC: 2.40918 cumulative IPC: 2.40918 (Simulation time: 0 hr 0 min 30 sec) 
Heartbeat CPU 0 instructions: 2000003 cycles: 837459 heartbeat IPC: 2.36755 cumulative IPC: 2.38818 (Simulation time: 0 hr 1 min 3 sec) 
Heartbeat CPU 0 instructions: 3000003 cycles: 1242970 heartbeat IPC: 2.46602 cumulative IPC: 2.41358 (Simulation time: 0 hr 1 min 37 sec) 
Heartbeat CPU 0 instructions: 4000000 cycles: 1627089 heartbeat IPC: 2.60335 cumulative IPC: 2.45838 (Simulation time: 0 hr 2 min 4 sec) 
Heartbeat CPU 0 instructions: 5000000 cycles: 2038216 heartbeat IPC: 2.43234 cumulative IPC: 2.45313 (Simulation time: 0 hr 2 min 31 sec) 
Heartbeat CPU 0 instructions: 6000000 cycles: 2511253 heartbeat IPC: 2.114 cumulative IPC: 2.38925 (Simulation time: 0 hr 2 min 58 sec) 
Heartbeat CPU 0 instructions: 7000002 cycles: 2883521 heartbeat IPC: 2.68624 cumulative IPC: 2.42759 (Simulation time: 0 hr 3 min 26 sec) 
Heartbeat CPU 0 instructions: 8000000 cycles: 3309156 heartbeat IPC: 2.34943 cumulative IPC: 2.41753 (Simulation time: 0 hr 4 min 2 sec) 
Heartbeat CPU 0 instructions: 9000001 cycles: 3747653 heartbeat IPC: 2.28052 cumulative IPC: 2.4015 (Simulation time: 0 hr 4 min 30 sec) 
Heartbeat CPU 0 instructions: 10000002 cycles: 4159910 heartbeat IPC: 2.42567 cumulative IPC: 2.4039 (Simulation time: 0 hr 4 min 59 sec) 

Warmup complete CPU 0 instructions: 10000002 cycles: 4159910 (Simulation time: 0 hr 4 min 59 sec) 

Heartbeat CPU 0 instructions: 11000001 cycles: 7684289 heartbeat IPC: 0.283738 cumulative IPC: 0.283738 (Simulation time: 0 hr 5 min 40 sec) 
Heartbeat CPU 0 instructions: 12000000 cycles: 9093132 heartbeat IPC: 0.709802 cumulative IPC: 0.405414 (Simulation time: 0 hr 6 min 8 sec) 
Heartbeat CPU 0 instructions: 13000001 cycles: 11794282 heartbeat IPC: 0.370213 cumulative IPC: 0.39296 (Simulation time: 0 hr 6 min 43 sec) 
Heartbeat CPU 0 instructions: 14000002 cycles: 14440890 heartbeat IPC: 0.377843 cumulative IPC: 0.389068 (Simulation time: 0 hr 7 min 18 sec) 
Heartbeat CPU 0 instructions: 15000002 cycles: 16923097 heartbeat IPC: 0.402867 cumulative IPC: 0.391752 (Simulation time: 0 hr 7 min 52 sec) 
Heartbeat CPU 0 instructions: 16000000 cycles: 19883683 heartbeat IPC: 0.33777 cumulative IPC: 0.381588 (Simulation time: 0 hr 8 min 30 sec) 
Heartbeat CPU 0 instructions: 17000001 cycles: 22404660 heartbeat IPC: 0.396672 cumulative IPC: 0.383672 (Simulation time: 0 hr 9 min 9 sec) 
Heartbeat CPU 0 instructions: 18000002 cycles: 24374045 heartbeat IPC: 0.507773 cumulative IPC: 0.395763 (Simulation time: 0 hr 9 min 46 sec) 
Heartbeat CPU 0 instructions: 19000002 cycles: 28211100 heartbeat IPC: 0.260617 cumulative IPC: 0.374202 (Simulation time: 0 hr 10 min 30 sec) 
Heartbeat CPU 0 instructions: 20000000 cycles: 29616220 heartbeat IPC: 0.711682 cumulative IPC: 0.39283 (Simulation time: 0 hr 10 min 56 sec) 
Heartbeat CPU 0 instructions: 21000000 cycles: 31927164 heartbeat IPC: 0.432724 cumulative IPC: 0.39615 (Simulation time: 0 hr 11 min 28 sec) 
Heartbeat CPU 0 instructions: 22000000 cycles: 34825998 heartbeat IPC: 0.344966 cumulative IPC: 0.391312 (Simulation time: 0 hr 12 min 2 sec) 
Heartbeat CPU 0 instructions: 23000000 cycles: 37345031 heartbeat IPC: 0.396978 cumulative IPC: 0.391742 (Simulation time: 0 hr 12 min 29 sec) 
Heartbeat CPU 0 instructions: 24000000 cycles: 39967907 heartbeat IPC: 0.381261 cumulative IPC: 0.390974 (Simulation time: 0 hr 12 min 59 sec) 
Heartbeat CPU 0 instructions: 25000003 cycles: 42793224 heartbeat IPC: 0.353944 cumulative IPC: 0.388266 (Simulation time: 0 hr 13 min 44 sec) 
Heartbeat CPU 0 instructions: 26000001 cycles: 45061621 heartbeat IPC: 0.440839 cumulative IPC: 0.391182 (Simulation time: 0 hr 14 min 21 sec) 
Heartbeat CPU 0 instructions: 27000002 cycles: 49017008 heartbeat IPC: 0.25282 cumulative IPC: 0.378981 (Simulation time: 0 hr 15 min 5 sec) 
Heartbeat CPU 0 instructions: 28000000 cycles: 50422235 heartbeat IPC: 0.711627 cumulative IPC: 0.389085 (Simulation time: 0 hr 15 min 27 sec) 
Heartbeat CPU 0 instructions: 29000002 cycles: 52358505 heartbeat IPC: 0.516458 cumulative IPC: 0.394202 (Simulation time: 0 hr 15 min 58 sec) 
Heartbeat CPU 0 instructions: 30000000 cycles: 55453641 heartbeat IPC: 0.323087 cumulative IPC: 0.389911 (Simulation time: 0 hr 16 min 36 sec) 
Heartbeat CPU 0 instructions: 31000001 cycles: 58042522 heartbeat IPC: 0.386268 cumulative IPC: 0.389736 (Simulation time: 0 hr 17 min 6 sec) 
Heartbeat CPU 0 instructions: 32000000 cycles: 60568684 heartbeat IPC: 0.395857 cumulative IPC: 0.39001 (Simulation time: 0 hr 17 min 36 sec) 
Heartbeat CPU 0 instructions: 33000001 cycles: 64351286 heartbeat IPC: 0.264369 cumulative IPC: 0.382115 (Simulation time: 0 hr 18 min 21 sec) 
Heartbeat CPU 0 instructions: 34000003 cycles: 66533888 heartbeat IPC: 0.45817 cumulative IPC: 0.384776 (Simulation time: 0 hr 18 min 59 sec) 
Heartbeat CPU 0 instructions: 35000003 cycles: 70009536 heartbeat IPC: 0.287716 cumulative IPC: 0.379653 (Simulation time: 0 hr 19 min 40 sec) 
Heartbeat CPU 0 instructions: 36000000 cycles: 71420963 heartbeat IPC: 0.708501 cumulative IPC: 0.386554 (Simulation time: 0 hr 20 min 4 sec) 
Heartbeat CPU 0 instructions: 37000000 cycles: 74136410 heartbeat IPC: 0.368263 cumulative IPC: 0.385844 (Simulation time: 0 hr 20 min 35 sec) 
Heartbeat CPU 0 instructions: 38000001 cycles: 76767759 heartbeat IPC: 0.380034 cumulative IPC: 0.385633 (Simulation time: 0 hr 21 min 9 sec) 
Heartbeat CPU 0 instructions: 39000003 cycles: 79305286 heartbeat IPC: 0.394085 cumulative IPC: 0.385919 (Simulation time: 0 hr 21 min 39 sec) 
Heartbeat CPU 0 instructions: 40000000 cycles: 82256655 heartbeat IPC: 0.338825 cumulative IPC: 0.384139 (Simulation time: 0 hr 22 min 17 sec) 
Heartbeat CPU 0 instructions: 41000001 cycles: 84794831 heartbeat IPC: 0.393984 cumulative IPC: 0.384449 (Simulation time: 0 hr 22 min 58 sec) 
Heartbeat CPU 0 instructions: 42000003 cycles: 86867286 heartbeat IPC: 0.48252 cumulative IPC: 0.386906 (Simulation time: 0 hr 23 min 36 sec) 
Heartbeat CPU 0 instructions: 43000000 cycles: 90773381 heartbeat IPC: 0.256009 cumulative IPC: 0.381003 (Simulation time: 0 hr 24 min 16 sec) 
Heartbeat CPU 0 instructions: 44000000 cycles: 92158011 heartbeat IPC: 0.722215 cumulative IPC: 0.386372 (Simulation time: 0 hr 24 min 40 sec) 
Heartbeat CPU 0 instructions: 45000003 cycles: 94463588 heartbeat IPC: 0.433732 cumulative IPC: 0.387581 (Simulation time: 0 hr 25 min 11 sec) 
Heartbeat CPU 0 instructions: 46000003 cycles: 97382883 heartbeat IPC: 0.342548 cumulative IPC: 0.386171 (Simulation time: 0 hr 25 min 46 sec) 
Heartbeat CPU 0 instructions: 47000001 cycles: 99889999 heartbeat IPC: 0.398864 cumulative IPC: 0.386503 (Simulation time: 0 hr 26 min 15 sec) 
Heartbeat CPU 0 instructions: 48000000 cycles: 102483360 heartbeat IPC: 0.3856 cumulative IPC: 0.386479 (Simulation time: 0 hr 26 min 50 sec) 
Heartbeat CPU 0 instructions: 49000000 cycles: 106076056 heartbeat IPC: 0.278343 cumulative IPC: 0.382668 (Simulation time: 0 hr 27 min 37 sec) 
Heartbeat CPU 0 instructions: 50000003 cycles: 111768681 heartbeat IPC: 0.175666 cumulative IPC: 0.371717 (Simulation time: 0 hr 28 min 28 sec) 
Heartbeat CPU 0 instructions: 51000002 cycles: 114286698 heartbeat IPC: 0.397138 cumulative IPC: 0.372298 (Simulation time: 0 hr 29 min 22 sec) 
Heartbeat CPU 0 instructions: 52000000 cycles: 118388333 heartbeat IPC: 0.243805 cumulative IPC: 0.367684 (Simulation time: 0 hr 30 min 8 sec) 
Heartbeat CPU 0 instructions: 53000003 cycles: 121244635 heartbeat IPC: 0.350104 cumulative IPC: 0.367255 (Simulation time: 0 hr 30 min 51 sec) 
Heartbeat CPU 0 instructions: 54000000 cycles: 123846002 heartbeat IPC: 0.384412 cumulative IPC: 0.367628 (Simulation time: 0 hr 31 min 37 sec) 
Heartbeat CPU 0 instructions: 55000002 cycles: 128017237 heartbeat IPC: 0.239738 cumulative IPC: 0.363321 (Simulation time: 0 hr 32 min 17 sec) 
Heartbeat CPU 0 instructions: 56000000 cycles: 132571148 heartbeat IPC: 0.219591 cumulative IPC: 0.358224 (Simulation time: 0 hr 33 min 8 sec) 
Heartbeat CPU 0 instructions: 57000003 cycles: 135704500 heartbeat IPC: 0.319148 cumulative IPC: 0.357293 (Simulation time: 0 hr 33 min 52 sec) 
Heartbeat CPU 0 instructions: 58000000 cycles: 138417178 heartbeat IPC: 0.368638 cumulative IPC: 0.357523 (Simulation time: 0 hr 34 min 37 sec) 
Heartbeat CPU 0 instructions: 59000002 cycles: 140160261 heartbeat IPC: 0.573697 cumulative IPC: 0.360293 (Simulation time: 0 hr 35 min 20 sec) 
Heartbeat CPU 0 instructions: 60000000 cycles: 141644190 heartbeat IPC: 0.673885 cumulative IPC: 0.363678 (Simulation time: 0 hr 35 min 55 sec) 
Heartbeat CPU 0 instructions: 61000002 cycles: 145087193 heartbeat IPC: 0.290445 cumulative IPC: 0.361889 (Simulation time: 0 hr 36 min 46 sec) 
Heartbeat CPU 0 instructions: 62000002 cycles: 148011968 heartbeat IPC: 0.341907 cumulative IPC: 0.361483 (Simulation time: 0 hr 37 min 42 sec) 
Heartbeat CPU 0 instructions: 63000002 cycles: 150096756 heartbeat IPC: 0.479665 cumulative IPC: 0.363171 (Simulation time: 0 hr 38 min 27 sec) 
Heartbeat CPU 0 instructions: 64000000 cycles: 152650195 heartbeat IPC: 0.391628 cumulative IPC: 0.36366 (Simulation time: 0 hr 39 min 8 sec) 
Heartbeat CPU 0 instructions: 65000000 cycles: 156543501 heartbeat IPC: 0.256851 cumulative IPC: 0.360931 (Simulation time: 0 hr 40 min 1 sec) 
Heartbeat CPU 0 instructions: 66000001 cycles: 157942517 heartbeat IPC: 0.714789 cumulative IPC: 0.36415 (Simulation time: 0 hr 40 min 27 sec) 
Heartbeat CPU 0 instructions: 67000000 cycles: 159349631 heartbeat IPC: 0.710674 cumulative IPC: 0.367292 (Simulation time: 0 hr 40 min 53 sec) 
Heartbeat CPU 0 instructions: 68000000 cycles: 162782208 heartbeat IPC: 0.291326 cumulative IPC: 0.365648 (Simulation time: 0 hr 41 min 34 sec) 
Heartbeat CPU 0 instructions: 69000000 cycles: 165414929 heartbeat IPC: 0.379835 cumulative IPC: 0.36588 (Simulation time: 0 hr 42 min 6 sec) 
Heartbeat CPU 0 instructions: 70000003 cycles: 167896423 heartbeat IPC: 0.402984 cumulative IPC: 0.366442 (Simulation time: 0 hr 42 min 38 sec) 
Heartbeat CPU 0 instructions: 71000000 cycles: 170473720 heartbeat IPC: 0.388002 cumulative IPC: 0.366776 (Simulation time: 0 hr 43 min 23 sec) 
Heartbeat CPU 0 instructions: 72000000 cycles: 173491211 heartbeat IPC: 0.331401 cumulative IPC: 0.366146 (Simulation time: 0 hr 44 min 10 sec) 
Heartbeat CPU 0 instructions: 73000002 cycles: 176667199 heartbeat IPC: 0.314863 cumulative IPC: 0.365202 (Simulation time: 0 hr 44 min 58 sec) 
Heartbeat CPU 0 instructions: 74000000 cycles: 178787998 heartbeat IPC: 0.471519 cumulative IPC: 0.366493 (Simulation time: 0 hr 45 min 29 sec) 
Heartbeat CPU 0 instructions: 75000002 cycles: 180205037 heartbeat IPC: 0.705698 cumulative IPC: 0.369224 (Simulation time: 0 hr 45 min 57 sec) 
Heartbeat CPU 0 instructions: 76000000 cycles: 183546161 heartbeat IPC: 0.2993 cumulative IPC: 0.367921 (Simulation time: 0 hr 46 min 40 sec) 
Heartbeat CPU 0 instructions: 77000000 cycles: 186093257 heartbeat IPC: 0.392604 cumulative IPC: 0.368267 (Simulation time: 0 hr 47 min 13 sec) 
Heartbeat CPU 0 instructions: 78000003 cycles: 188570808 heartbeat IPC: 0.403626 cumulative IPC: 0.368742 (Simulation time: 0 hr 47 min 45 sec) 
Heartbeat CPU 0 instructions: 79000001 cycles: 191869851 heartbeat IPC: 0.303118 cumulative IPC: 0.367588 (Simulation time: 0 hr 48 min 29 sec) 
Heartbeat CPU 0 instructions: 80000000 cycles: 194769671 heartbeat IPC: 0.344849 cumulative IPC: 0.367242 (Simulation time: 0 hr 49 min 7 sec) 
Heartbeat CPU 0 instructions: 81000003 cycles: 198213828 heartbeat IPC: 0.290348 cumulative IPC: 0.365878 (Simulation time: 0 hr 50 min 1 sec) 
Heartbeat CPU 0 instructions: 82000000 cycles: 200048555 heartbeat IPC: 0.545039 cumulative IPC: 0.367556 (Simulation time: 0 hr 50 min 29 sec) 
Heartbeat CPU 0 instructions: 83000001 cycles: 201464364 heartbeat IPC: 0.706311 cumulative IPC: 0.369987 (Simulation time: 0 hr 50 min 53 sec) 
Heartbeat CPU 0 instructions: 84000000 cycles: 204872298 heartbeat IPC: 0.293433 cumulative IPC: 0.368687 (Simulation time: 0 hr 51 min 30 sec) 
Heartbeat CPU 0 instructions: 85000000 cycles: 207342635 heartbeat IPC: 0.404803 cumulative IPC: 0.369126 (Simulation time: 0 hr 52 min 3 sec) 
Heartbeat CPU 0 instructions: 86000000 cycles: 209860277 heartbeat IPC: 0.397197 cumulative IPC: 0.369469 (Simulation time: 0 hr 52 min 35 sec) 
Heartbeat CPU 0 instructions: 87000000 cycles: 213163924 heartbeat IPC: 0.302696 cumulative IPC: 0.368414 (Simulation time: 0 hr 53 min 18 sec) 
Heartbeat CPU 0 instructions: 88000000 cycles: 215643201 heartbeat IPC: 0.403343 cumulative IPC: 0.368823 (Simulation time: 0 hr 53 min 56 sec) 
Heartbeat CPU 0 instructions: 89000001 cycles: 219559425 heartbeat IPC: 0.255348 cumulative IPC: 0.36676 (Simulation time: 0 hr 54 min 40 sec) 
Heartbeat CPU 0 instructions: 90000002 cycles: 220956842 heartbeat IPC: 0.715607 cumulative IPC: 0.369009 (Simulation time: 0 hr 55 min 2 sec) 
Heartbeat CPU 0 instructions: 91000000 cycles: 222457734 heartbeat IPC: 0.666269 cumulative IPC: 0.371053 (Simulation time: 0 hr 55 min 24 sec) 
Heartbeat CPU 0 instructions: 92000000 cycles: 225800593 heartbeat IPC: 0.299145 cumulative IPC: 0.369968 (Simulation time: 0 hr 55 min 56 sec) 
Heartbeat CPU 0 instructions: 93000000 cycles: 228467551 heartbeat IPC: 0.374959 cumulative IPC: 0.370028 (Simulation time: 0 hr 56 min 21 sec) 
Heartbeat CPU 0 instructions: 94000001 cycles: 230935772 heartbeat IPC: 0.405151 cumulative IPC: 0.37041 (Simulation time: 0 hr 56 min 40 sec) 
Heartbeat CPU 0 instructions: 95000003 cycles: 234629993 heartbeat IPC: 0.270694 cumulative IPC: 0.368811 (Simulation time: 0 hr 57 min 10 sec) 
Heartbeat CPU 0 instructions: 96000000 cycles: 236656811 heartbeat IPC: 0.493383 cumulative IPC: 0.369897 (Simulation time: 0 hr 57 min 34 sec) 
Heartbeat CPU 0 instructions: 97000003 cycles: 240303395 heartbeat IPC: 0.27423 cumulative IPC: 0.36842 (Simulation time: 0 hr 58 min 1 sec) 
Heartbeat CPU 0 instructions: 98000003 cycles: 241690831 heartbeat IPC: 0.720754 cumulative IPC: 0.370478 (Simulation time: 0 hr 58 min 16 sec) 
Heartbeat CPU 0 instructions: 99000000 cycles: 244154638 heartbeat IPC: 0.405875 cumulative IPC: 0.370841 (Simulation time: 0 hr 58 min 35 sec) 
Heartbeat CPU 0 instructions: 100000000 cycles: 246973888 heartbeat IPC: 0.354704 cumulative IPC: 0.370654 (Simulation time: 0 hr 58 min 55 sec) 
Heartbeat CPU 0 instructions: 101000001 cycles: 249458228 heartbeat IPC: 0.402522 cumulative IPC: 0.370977 (Simulation time: 0 hr 59 min 12 sec) 
Heartbeat CPU 0 instructions: 102000002 cycles: 252166895 heartbeat IPC: 0.369186 cumulative IPC: 0.370957 (Simulation time: 0 hr 59 min 31 sec) 
Heartbeat CPU 0 instructions: 103000002 cycles: 255714438 heartbeat IPC: 0.281885 cumulative IPC: 0.369701 (Simulation time: 0 hr 59 min 58 sec) 
Heartbeat CPU 0 instructions: 104000000 cycles: 258290573 heartbeat IPC: 0.388178 cumulative IPC: 0.369888 (Simulation time: 1 hr 0 min 21 sec) 
Heartbeat CPU 0 instructions: 105000000 cycles: 261034024 heartbeat IPC: 0.364504 cumulative IPC: 0.369831 (Simulation time: 1 hr 0 min 39 sec) 
Heartbeat CPU 0 instructions: 106000001 cycles: 262436762 heartbeat IPC: 0.712892 cumulative IPC: 0.371694 (Simulation time: 1 hr 0 min 53 sec) 
Heartbeat CPU 0 instructions: 107000001 cycles: 265586738 heartbeat IPC: 0.317463 cumulative IPC: 0.371041 (Simulation time: 1 hr 1 min 12 sec) 
Heartbeat CPU 0 instructions: 108000000 cycles: 267982816 heartbeat IPC: 0.417348 cumulative IPC: 0.371461 (Simulation time: 1 hr 1 min 28 sec) 
Heartbeat CPU 0 instructions: 109000003 cycles: 270498122 heartbeat IPC: 0.397567 cumulative IPC: 0.371708 (Simulation time: 1 hr 1 min 43 sec) 
Heartbeat CPU 0 instructions: 110000001 cycles: 273721740 heartbeat IPC: 0.31021 cumulative IPC: 0.370972 (Simulation time: 1 hr 2 min 4 sec) 
Finished CPU 0 instructions: 100000003 cycles: 269561831 cummulative IPC: 0.370972 (Simulation time: 1 hr 2 min 4 sec) 

ChampSim completed all CPUs

Region of Interest Statistics

CPU 0 cummulative IPC: 0.370972 instructions: 100000003 cycles: 269561831
LLC TOTAL     ACCESS:    6615902  HIT:    2166294  MISS:    4449608
LLC LOAD      ACCESS:    1711632  HIT:     469714  MISS:    1241918
LLC RFO       ACCESS:     658486  HIT:     110037  MISS:     548449
LLC PREFETCH  ACCESS:    2685147  HIT:     681331  MISS:    2003816
LLC WRITEBACK ACCESS:    1560637  HIT:     905212  MISS:     655425
Insertion Distribution: 
	LOAD 211353 0 233294 888831 
	RFO 152751 0 137822 322843 
	PREF 0 26197 294320 1911251 
	WRITEBACK 0 0 0 731731 
Total Prefetch Downgrades: 73281
