
*** ChampSim Multicore Out-of-Order Simulator ***

Warmup Instructions: 10000000
Simulation Instructions: 100000000
Configuration: 2
Number of CPUs: 1
LLC sets: 2048
LLC ways: 16
Off-chip DRAM Channels: 1 Width: 64-bit Data Rate: 1600 MT/s

CPU 0 runs /datasets/cs240c-wi22-a00-public/data/Assignment2-gz/soplex_217B.trace.gz
CPU 0 L1D next line prefetcher
CPU 0 L2C IP-based stride prefetcher
Initialize SRRIP state
Heartbeat CPU 0 instructions: 1000002 cycles: 441791 heartbeat IPC: 2.26352 cumulative IPC: 2.26352 (Simulation time: 0 hr 0 min 48 sec) 
Heartbeat CPU 0 instructions: 2000003 cycles: 800903 heartbeat IPC: 2.78465 cumulative IPC: 2.49718 (Simulation time: 0 hr 1 min 32 sec) 
Heartbeat CPU 0 instructions: 3000002 cycles: 1245948 heartbeat IPC: 2.24696 cumulative IPC: 2.40781 (Simulation time: 0 hr 2 min 18 sec) 
Heartbeat CPU 0 instructions: 4000000 cycles: 1674686 heartbeat IPC: 2.33242 cumulative IPC: 2.38851 (Simulation time: 0 hr 3 min 2 sec) 
Heartbeat CPU 0 instructions: 5000001 cycles: 2058737 heartbeat IPC: 2.60382 cumulative IPC: 2.42867 (Simulation time: 0 hr 3 min 38 sec) 
Heartbeat CPU 0 instructions: 6000000 cycles: 2433041 heartbeat IPC: 2.67162 cumulative IPC: 2.46605 (Simulation time: 0 hr 4 min 21 sec) 
Heartbeat CPU 0 instructions: 7000003 cycles: 2958267 heartbeat IPC: 1.90395 cumulative IPC: 2.36625 (Simulation time: 0 hr 4 min 58 sec) 
Heartbeat CPU 0 instructions: 8000000 cycles: 3405044 heartbeat IPC: 2.23825 cumulative IPC: 2.34946 (Simulation time: 0 hr 5 min 54 sec) 
Heartbeat CPU 0 instructions: 9000001 cycles: 3829384 heartbeat IPC: 2.3566 cumulative IPC: 2.35025 (Simulation time: 0 hr 6 min 36 sec) 
Heartbeat CPU 0 instructions: 10000000 cycles: 4241737 heartbeat IPC: 2.4251 cumulative IPC: 2.35752 (Simulation time: 0 hr 7 min 23 sec) 

Warmup complete CPU 0 instructions: 10000004 cycles: 4241738 (Simulation time: 0 hr 7 min 23 sec) 

Heartbeat CPU 0 instructions: 11000002 cycles: 8450010 heartbeat IPC: 0.237628 cumulative IPC: 0.237627 (Simulation time: 0 hr 8 min 34 sec) 
Heartbeat CPU 0 instructions: 12000000 cycles: 11315417 heartbeat IPC: 0.34899 cumulative IPC: 0.282738 (Simulation time: 0 hr 9 min 18 sec) 
Heartbeat CPU 0 instructions: 13000000 cycles: 12738560 heartbeat IPC: 0.70267 cumulative IPC: 0.353073 (Simulation time: 0 hr 9 min 44 sec) 
Heartbeat CPU 0 instructions: 14000000 cycles: 15514576 heartbeat IPC: 0.360228 cumulative IPC: 0.354835 (Simulation time: 0 hr 10 min 27 sec) 
Heartbeat CPU 0 instructions: 15000000 cycles: 18380030 heartbeat IPC: 0.348985 cumulative IPC: 0.353649 (Simulation time: 0 hr 11 min 25 sec) 
Heartbeat CPU 0 instructions: 16000000 cycles: 22280189 heartbeat IPC: 0.2564 cumulative IPC: 0.332623 (Simulation time: 0 hr 12 min 37 sec) 
Heartbeat CPU 0 instructions: 17000002 cycles: 24742628 heartbeat IPC: 0.406102 cumulative IPC: 0.341448 (Simulation time: 0 hr 13 min 22 sec) 
Heartbeat CPU 0 instructions: 18000002 cycles: 27578968 heartbeat IPC: 0.352567 cumulative IPC: 0.3428 (Simulation time: 0 hr 14 min 17 sec) 
Heartbeat CPU 0 instructions: 19000000 cycles: 31611839 heartbeat IPC: 0.247962 cumulative IPC: 0.328826 (Simulation time: 0 hr 15 min 13 sec) 
Heartbeat CPU 0 instructions: 20000000 cycles: 33044321 heartbeat IPC: 0.698089 cumulative IPC: 0.347191 (Simulation time: 0 hr 15 min 55 sec) 
Heartbeat CPU 0 instructions: 21000000 cycles: 34582804 heartbeat IPC: 0.649991 cumulative IPC: 0.362545 (Simulation time: 0 hr 16 min 30 sec) 
Heartbeat CPU 0 instructions: 22000001 cycles: 38005123 heartbeat IPC: 0.2922 cumulative IPC: 0.355415 (Simulation time: 0 hr 17 min 32 sec) 
Heartbeat CPU 0 instructions: 23000003 cycles: 41579836 heartbeat IPC: 0.279743 cumulative IPC: 0.34817 (Simulation time: 0 hr 18 min 30 sec) 
Heartbeat CPU 0 instructions: 24000000 cycles: 45245049 heartbeat IPC: 0.272835 cumulative IPC: 0.341436 (Simulation time: 0 hr 19 min 28 sec) 
Heartbeat CPU 0 instructions: 25000001 cycles: 46703819 heartbeat IPC: 0.68551 cumulative IPC: 0.353256 (Simulation time: 0 hr 20 min 13 sec) 
Heartbeat CPU 0 instructions: 26000003 cycles: 51144979 heartbeat IPC: 0.225167 cumulative IPC: 0.341128 (Simulation time: 0 hr 21 min 23 sec) 
Heartbeat CPU 0 instructions: 27000002 cycles: 53852523 heartbeat IPC: 0.369338 cumulative IPC: 0.342667 (Simulation time: 0 hr 22 min 10 sec) 
Heartbeat CPU 0 instructions: 28000000 cycles: 55275618 heartbeat IPC: 0.702692 cumulative IPC: 0.352707 (Simulation time: 0 hr 22 min 39 sec) 
Heartbeat CPU 0 instructions: 29000002 cycles: 58106875 heartbeat IPC: 0.353201 cumulative IPC: 0.352733 (Simulation time: 0 hr 23 min 25 sec) 
Heartbeat CPU 0 instructions: 30000002 cycles: 61086807 heartbeat IPC: 0.335578 cumulative IPC: 0.351833 (Simulation time: 0 hr 24 min 24 sec) 
Heartbeat CPU 0 instructions: 31000000 cycles: 64618893 heartbeat IPC: 0.283118 cumulative IPC: 0.347814 (Simulation time: 0 hr 25 min 17 sec) 
Heartbeat CPU 0 instructions: 32000000 cycles: 66385852 heartbeat IPC: 0.565944 cumulative IPC: 0.354016 (Simulation time: 0 hr 26 min 2 sec) 
Heartbeat CPU 0 instructions: 33000001 cycles: 70312927 heartbeat IPC: 0.254643 cumulative IPC: 0.348109 (Simulation time: 0 hr 26 min 56 sec) 
Heartbeat CPU 0 instructions: 34000000 cycles: 73483410 heartbeat IPC: 0.315409 cumulative IPC: 0.346612 (Simulation time: 0 hr 27 min 41 sec) 
Heartbeat CPU 0 instructions: 35000002 cycles: 74915897 heartbeat IPC: 0.698088 cumulative IPC: 0.353736 (Simulation time: 0 hr 28 min 20 sec) 
Heartbeat CPU 0 instructions: 36000000 cycles: 77261980 heartbeat IPC: 0.426242 cumulative IPC: 0.356066 (Simulation time: 0 hr 29 min 2 sec) 
Heartbeat CPU 0 instructions: 37000002 cycles: 80109973 heartbeat IPC: 0.351125 cumulative IPC: 0.35588 (Simulation time: 0 hr 29 min 46 sec) 
Heartbeat CPU 0 instructions: 38000000 cycles: 83910558 heartbeat IPC: 0.263117 cumulative IPC: 0.351455 (Simulation time: 0 hr 30 min 59 sec) 
Heartbeat CPU 0 instructions: 39000001 cycles: 85992808 heartbeat IPC: 0.48025 cumulative IPC: 0.354735 (Simulation time: 0 hr 31 min 44 sec) 
Heartbeat CPU 0 instructions: 40000000 cycles: 89524635 heartbeat IPC: 0.283139 cumulative IPC: 0.35177 (Simulation time: 0 hr 32 min 41 sec) 
Heartbeat CPU 0 instructions: 41000000 cycles: 93059680 heartbeat IPC: 0.282882 cumulative IPC: 0.349029 (Simulation time: 0 hr 33 min 35 sec) 
Heartbeat CPU 0 instructions: 42000002 cycles: 94498470 heartbeat IPC: 0.69503 cumulative IPC: 0.354544 (Simulation time: 0 hr 34 min 9 sec) 
Heartbeat CPU 0 instructions: 43000001 cycles: 96423932 heartbeat IPC: 0.519355 cumulative IPC: 0.357987 (Simulation time: 0 hr 34 min 49 sec) 
Heartbeat CPU 0 instructions: 44000000 cycles: 99459728 heartbeat IPC: 0.329403 cumulative IPC: 0.357075 (Simulation time: 0 hr 35 min 45 sec) 
Heartbeat CPU 0 instructions: 45000003 cycles: 103235743 heartbeat IPC: 0.26483 cumulative IPC: 0.353557 (Simulation time: 0 hr 36 min 53 sec) 
Heartbeat CPU 0 instructions: 46000000 cycles: 106477228 heartbeat IPC: 0.3085 cumulative IPC: 0.352128 (Simulation time: 0 hr 37 min 53 sec) 
Heartbeat CPU 0 instructions: 47000001 cycles: 108138617 heartbeat IPC: 0.601907 cumulative IPC: 0.356122 (Simulation time: 0 hr 38 min 42 sec) 
Heartbeat CPU 0 instructions: 48000000 cycles: 112247312 heartbeat IPC: 0.243386 cumulative IPC: 0.351834 (Simulation time: 0 hr 39 min 47 sec) 
Heartbeat CPU 0 instructions: 49000000 cycles: 115214060 heartbeat IPC: 0.337069 cumulative IPC: 0.351439 (Simulation time: 0 hr 40 min 32 sec) 
Heartbeat CPU 0 instructions: 50000001 cycles: 116646788 heartbeat IPC: 0.69797 cumulative IPC: 0.355856 (Simulation time: 0 hr 41 min 7 sec) 
Heartbeat CPU 0 instructions: 51000000 cycles: 119326468 heartbeat IPC: 0.373179 cumulative IPC: 0.356259 (Simulation time: 0 hr 41 min 51 sec) 
Heartbeat CPU 0 instructions: 52000000 cycles: 122236161 heartbeat IPC: 0.343679 cumulative IPC: 0.355949 (Simulation time: 0 hr 42 min 43 sec) 
Heartbeat CPU 0 instructions: 53000000 cycles: 125846343 heartbeat IPC: 0.276994 cumulative IPC: 0.353605 (Simulation time: 0 hr 43 min 51 sec) 
Heartbeat CPU 0 instructions: 54000000 cycles: 127790303 heartbeat IPC: 0.514414 cumulative IPC: 0.356135 (Simulation time: 0 hr 44 min 36 sec) 
Heartbeat CPU 0 instructions: 55000000 cycles: 131536021 heartbeat IPC: 0.266971 cumulative IPC: 0.353512 (Simulation time: 0 hr 45 min 39 sec) 
Heartbeat CPU 0 instructions: 56000000 cycles: 134823542 heartbeat IPC: 0.304181 cumulative IPC: 0.35227 (Simulation time: 0 hr 46 min 28 sec) 
Heartbeat CPU 0 instructions: 57000003 cycles: 136258636 heartbeat IPC: 0.696821 cumulative IPC: 0.356015 (Simulation time: 0 hr 46 min 57 sec) 
Heartbeat CPU 0 instructions: 58000000 cycles: 138557302 heartbeat IPC: 0.435034 cumulative IPC: 0.357367 (Simulation time: 0 hr 47 min 39 sec) 
Heartbeat CPU 0 instructions: 59000000 cycles: 141377250 heartbeat IPC: 0.354616 cumulative IPC: 0.357311 (Simulation time: 0 hr 48 min 22 sec) 
Heartbeat CPU 0 instructions: 60000000 cycles: 145024983 heartbeat IPC: 0.274143 cumulative IPC: 0.355156 (Simulation time: 0 hr 49 min 27 sec) 
Heartbeat CPU 0 instructions: 61000000 cycles: 147442701 heartbeat IPC: 0.413613 cumulative IPC: 0.356143 (Simulation time: 0 hr 50 min 11 sec) 
Heartbeat CPU 0 instructions: 62000001 cycles: 150486526 heartbeat IPC: 0.328534 cumulative IPC: 0.355568 (Simulation time: 0 hr 50 min 58 sec) 
Heartbeat CPU 0 instructions: 63000001 cycles: 154436647 heartbeat IPC: 0.253157 cumulative IPC: 0.352875 (Simulation time: 0 hr 51 min 59 sec) 
Heartbeat CPU 0 instructions: 64000000 cycles: 155876034 heartbeat IPC: 0.69474 cumulative IPC: 0.35612 (Simulation time: 0 hr 52 min 26 sec) 
Heartbeat CPU 0 instructions: 65000000 cycles: 157513595 heartbeat IPC: 0.610664 cumulative IPC: 0.358839 (Simulation time: 0 hr 53 min 3 sec) 
Heartbeat CPU 0 instructions: 66000002 cycles: 160831567 heartbeat IPC: 0.30139 cumulative IPC: 0.357622 (Simulation time: 0 hr 53 min 48 sec) 
Heartbeat CPU 0 instructions: 67000000 cycles: 164364632 heartbeat IPC: 0.28304 cumulative IPC: 0.355977 (Simulation time: 0 hr 54 min 44 sec) 
Heartbeat CPU 0 instructions: 68000000 cycles: 170502867 heartbeat IPC: 0.162913 cumulative IPC: 0.348849 (Simulation time: 0 hr 55 min 31 sec) 
Heartbeat CPU 0 instructions: 69000001 cycles: 174943067 heartbeat IPC: 0.225215 cumulative IPC: 0.345633 (Simulation time: 0 hr 56 min 16 sec) 
Heartbeat CPU 0 instructions: 70000002 cycles: 179201167 heartbeat IPC: 0.234847 cumulative IPC: 0.342937 (Simulation time: 0 hr 56 min 55 sec) 
Heartbeat CPU 0 instructions: 71000002 cycles: 183902606 heartbeat IPC: 0.212701 cumulative IPC: 0.339529 (Simulation time: 0 hr 57 min 35 sec) 
Heartbeat CPU 0 instructions: 72000000 cycles: 187484362 heartbeat IPC: 0.279192 cumulative IPC: 0.338349 (Simulation time: 0 hr 58 min 4 sec) 
Heartbeat CPU 0 instructions: 73000000 cycles: 191044507 heartbeat IPC: 0.280887 cumulative IPC: 0.337254 (Simulation time: 0 hr 58 min 37 sec) 
Heartbeat CPU 0 instructions: 74000000 cycles: 195640691 heartbeat IPC: 0.217572 cumulative IPC: 0.33438 (Simulation time: 0 hr 59 min 5 sec) 
Heartbeat CPU 0 instructions: 75000002 cycles: 200817711 heartbeat IPC: 0.193162 cumulative IPC: 0.330661 (Simulation time: 0 hr 59 min 35 sec) 
Heartbeat CPU 0 instructions: 76000000 cycles: 203960934 heartbeat IPC: 0.318144 cumulative IPC: 0.330464 (Simulation time: 0 hr 59 min 59 sec) 
Heartbeat CPU 0 instructions: 77000000 cycles: 208635908 heartbeat IPC: 0.213905 cumulative IPC: 0.327798 (Simulation time: 1 hr 0 min 26 sec) 
Heartbeat CPU 0 instructions: 78000002 cycles: 211293648 heartbeat IPC: 0.37626 cumulative IPC: 0.32842 (Simulation time: 1 hr 0 min 50 sec) 
Heartbeat CPU 0 instructions: 79000002 cycles: 213389186 heartbeat IPC: 0.477204 cumulative IPC: 0.329911 (Simulation time: 1 hr 1 min 18 sec) 
Heartbeat CPU 0 instructions: 80000000 cycles: 214798717 heartbeat IPC: 0.709454 cumulative IPC: 0.332452 (Simulation time: 1 hr 1 min 36 sec) 
Heartbeat CPU 0 instructions: 81000002 cycles: 217364599 heartbeat IPC: 0.38973 cumulative IPC: 0.333141 (Simulation time: 1 hr 1 min 55 sec) 
Heartbeat CPU 0 instructions: 82000001 cycles: 220897090 heartbeat IPC: 0.283086 cumulative IPC: 0.332325 (Simulation time: 1 hr 2 min 16 sec) 
Heartbeat CPU 0 instructions: 83000002 cycles: 223777244 heartbeat IPC: 0.347204 cumulative IPC: 0.33252 (Simulation time: 1 hr 2 min 33 sec) 
Heartbeat CPU 0 instructions: 84000000 cycles: 226099484 heartbeat IPC: 0.430618 cumulative IPC: 0.333547 (Simulation time: 1 hr 2 min 47 sec) 
Heartbeat CPU 0 instructions: 85000000 cycles: 227740304 heartbeat IPC: 0.609451 cumulative IPC: 0.335573 (Simulation time: 1 hr 3 min 1 sec) 
Heartbeat CPU 0 instructions: 86000000 cycles: 231918142 heartbeat IPC: 0.239358 cumulative IPC: 0.333807 (Simulation time: 1 hr 3 min 19 sec) 
Heartbeat CPU 0 instructions: 87000000 cycles: 234850849 heartbeat IPC: 0.340982 cumulative IPC: 0.333898 (Simulation time: 1 hr 3 min 32 sec) 
Heartbeat CPU 0 instructions: 88000000 cycles: 236289338 heartbeat IPC: 0.695174 cumulative IPC: 0.336138 (Simulation time: 1 hr 3 min 41 sec) 
Heartbeat CPU 0 instructions: 89000003 cycles: 239031755 heartbeat IPC: 0.364643 cumulative IPC: 0.336471 (Simulation time: 1 hr 3 min 52 sec) 
Heartbeat CPU 0 instructions: 90000002 cycles: 241971995 heartbeat IPC: 0.340108 cumulative IPC: 0.336516 (Simulation time: 1 hr 4 min 6 sec) 
Heartbeat CPU 0 instructions: 91000001 cycles: 245545052 heartbeat IPC: 0.279872 cumulative IPC: 0.335677 (Simulation time: 1 hr 4 min 19 sec) 
Heartbeat CPU 0 instructions: 92000000 cycles: 247473741 heartbeat IPC: 0.518486 cumulative IPC: 0.337127 (Simulation time: 1 hr 4 min 29 sec) 
Heartbeat CPU 0 instructions: 93000000 cycles: 251282710 heartbeat IPC: 0.262538 cumulative IPC: 0.335977 (Simulation time: 1 hr 4 min 42 sec) 
Heartbeat CPU 0 instructions: 94000001 cycles: 254562855 heartbeat IPC: 0.304865 cumulative IPC: 0.335569 (Simulation time: 1 hr 4 min 50 sec) 
Heartbeat CPU 0 instructions: 95000003 cycles: 256005078 heartbeat IPC: 0.693375 cumulative IPC: 0.337619 (Simulation time: 1 hr 4 min 55 sec) 
Heartbeat CPU 0 instructions: 96000000 cycles: 258366486 heartbeat IPC: 0.423475 cumulative IPC: 0.338416 (Simulation time: 1 hr 5 min 1 sec) 
Heartbeat CPU 0 instructions: 97000002 cycles: 261039308 heartbeat IPC: 0.374137 cumulative IPC: 0.338788 (Simulation time: 1 hr 5 min 8 sec) 
Heartbeat CPU 0 instructions: 98000003 cycles: 265247203 heartbeat IPC: 0.237649 cumulative IPC: 0.337158 (Simulation time: 1 hr 5 min 17 sec) 
Heartbeat CPU 0 instructions: 99000000 cycles: 268413225 heartbeat IPC: 0.315853 cumulative IPC: 0.336902 (Simulation time: 1 hr 5 min 23 sec) 
Heartbeat CPU 0 instructions: 100000000 cycles: 270482619 heartbeat IPC: 0.483233 cumulative IPC: 0.33804 (Simulation time: 1 hr 5 min 29 sec) 
Heartbeat CPU 0 instructions: 101000000 cycles: 275079235 heartbeat IPC: 0.217551 cumulative IPC: 0.335995 (Simulation time: 1 hr 5 min 37 sec) 
Heartbeat CPU 0 instructions: 102000000 cycles: 276819284 heartbeat IPC: 0.574696 cumulative IPC: 0.337519 (Simulation time: 1 hr 5 min 40 sec) 
Heartbeat CPU 0 instructions: 103000001 cycles: 278238672 heartbeat IPC: 0.70453 cumulative IPC: 0.33942 (Simulation time: 1 hr 5 min 44 sec) 
Heartbeat CPU 0 instructions: 104000000 cycles: 281701984 heartbeat IPC: 0.288741 cumulative IPC: 0.338787 (Simulation time: 1 hr 5 min 48 sec) 
Heartbeat CPU 0 instructions: 105000003 cycles: 285008118 heartbeat IPC: 0.302469 cumulative IPC: 0.33836 (Simulation time: 1 hr 5 min 53 sec) 
Heartbeat CPU 0 instructions: 106000002 cycles: 287989849 heartbeat IPC: 0.335375 cumulative IPC: 0.338328 (Simulation time: 1 hr 5 min 57 sec) 
Heartbeat CPU 0 instructions: 107000000 cycles: 289812730 heartbeat IPC: 0.548581 cumulative IPC: 0.33967 (Simulation time: 1 hr 6 min 2 sec) 
Heartbeat CPU 0 instructions: 108000000 cycles: 294351127 heartbeat IPC: 0.220342 cumulative IPC: 0.337804 (Simulation time: 1 hr 6 min 8 sec) 
Heartbeat CPU 0 instructions: 109000000 cycles: 296461198 heartbeat IPC: 0.473918 cumulative IPC: 0.338786 (Simulation time: 1 hr 6 min 11 sec) 
Heartbeat CPU 0 instructions: 110000002 cycles: 297885684 heartbeat IPC: 0.702009 cumulative IPC: 0.340548 (Simulation time: 1 hr 6 min 14 sec) 
Finished CPU 0 instructions: 100000000 cycles: 293643950 cummulative IPC: 0.340548 (Simulation time: 1 hr 6 min 14 sec) 

ChampSim completed all CPUs

Region of Interest Statistics

CPU 0 cummulative IPC: 0.340548 instructions: 100000000 cycles: 293643950
LLC TOTAL     ACCESS:    8741172  HIT:    3210245  MISS:    5530927
LLC LOAD      ACCESS:    2256992  HIT:     737842  MISS:    1519150
LLC RFO       ACCESS:     764942  HIT:     175552  MISS:     589390
LLC PREFETCH  ACCESS:    3558715  HIT:    1021784  MISS:    2536931
LLC WRITEBACK ACCESS:    2160523  HIT:    1275067  MISS:     885456
Insertion Distribution: 
	LOAD 316275 0 293416 1038024 
	RFO 121709 0 117133 412709 
	PREF 0 67235 329503 2423814 
	WRITEBACK 0 0 0 985764 
Total Prefetch Downgrades: 124369
