
*** ChampSim Multicore Out-of-Order Simulator ***

Warmup Instructions: 10000000
Simulation Instructions: 100000000
Configuration: 2
Number of CPUs: 1
LLC sets: 2048
LLC ways: 16
Off-chip DRAM Channels: 1 Width: 64-bit Data Rate: 1600 MT/s

CPU 0 runs /datasets/cs240c-wi22-a00-public/data/Assignment2-gz/GemsFDTD_716B.trace.gz
CPU 0 L1D next line prefetcher
CPU 0 L2C IP-based stride prefetcher
Initialize SRRIP state
Heartbeat CPU 0 instructions: 1000000 cycles: 415045 heartbeat IPC: 2.40938 cumulative IPC: 2.40938 (Simulation time: 0 hr 0 min 32 sec) 
Heartbeat CPU 0 instructions: 2000003 cycles: 829979 heartbeat IPC: 2.41003 cumulative IPC: 2.4097 (Simulation time: 0 hr 1 min 1 sec) 
Heartbeat CPU 0 instructions: 3000000 cycles: 1280197 heartbeat IPC: 2.22114 cumulative IPC: 2.34339 (Simulation time: 0 hr 1 min 30 sec) 
Heartbeat CPU 0 instructions: 4000000 cycles: 1737222 heartbeat IPC: 2.18806 cumulative IPC: 2.30253 (Simulation time: 0 hr 1 min 59 sec) 
Heartbeat CPU 0 instructions: 5000000 cycles: 2152201 heartbeat IPC: 2.40976 cumulative IPC: 2.3232 (Simulation time: 0 hr 2 min 32 sec) 
Heartbeat CPU 0 instructions: 6000000 cycles: 2567216 heartbeat IPC: 2.40955 cumulative IPC: 2.33716 (Simulation time: 0 hr 3 min 3 sec) 
Heartbeat CPU 0 instructions: 7000000 cycles: 2982219 heartbeat IPC: 2.40962 cumulative IPC: 2.34725 (Simulation time: 0 hr 3 min 34 sec) 
Heartbeat CPU 0 instructions: 8000000 cycles: 3395140 heartbeat IPC: 2.42177 cumulative IPC: 2.35631 (Simulation time: 0 hr 4 min 4 sec) 
Heartbeat CPU 0 instructions: 9000001 cycles: 3840387 heartbeat IPC: 2.24595 cumulative IPC: 2.34351 (Simulation time: 0 hr 4 min 39 sec) 
Heartbeat CPU 0 instructions: 10000002 cycles: 4355028 heartbeat IPC: 1.9431 cumulative IPC: 2.2962 (Simulation time: 0 hr 5 min 23 sec) 

Warmup complete CPU 0 instructions: 10000002 cycles: 4355028 (Simulation time: 0 hr 5 min 23 sec) 

Heartbeat CPU 0 instructions: 11000000 cycles: 7803034 heartbeat IPC: 0.290022 cumulative IPC: 0.290022 (Simulation time: 0 hr 6 min 25 sec) 
Heartbeat CPU 0 instructions: 12000000 cycles: 11250853 heartbeat IPC: 0.290038 cumulative IPC: 0.29003 (Simulation time: 0 hr 7 min 30 sec) 
Heartbeat CPU 0 instructions: 13000000 cycles: 14701130 heartbeat IPC: 0.289832 cumulative IPC: 0.289964 (Simulation time: 0 hr 8 min 28 sec) 
Heartbeat CPU 0 instructions: 14000000 cycles: 18349079 heartbeat IPC: 0.274127 cumulative IPC: 0.285836 (Simulation time: 0 hr 9 min 30 sec) 
Heartbeat CPU 0 instructions: 15000000 cycles: 22110771 heartbeat IPC: 0.265838 cumulative IPC: 0.281599 (Simulation time: 0 hr 10 min 35 sec) 
Heartbeat CPU 0 instructions: 16000000 cycles: 25843168 heartbeat IPC: 0.267924 cumulative IPC: 0.279224 (Simulation time: 0 hr 11 min 37 sec) 
Heartbeat CPU 0 instructions: 17000002 cycles: 29583565 heartbeat IPC: 0.267352 cumulative IPC: 0.277464 (Simulation time: 0 hr 12 min 39 sec) 
Heartbeat CPU 0 instructions: 18000003 cycles: 33307137 heartbeat IPC: 0.26856 cumulative IPC: 0.276318 (Simulation time: 0 hr 13 min 36 sec) 
Heartbeat CPU 0 instructions: 19000000 cycles: 37041579 heartbeat IPC: 0.267777 cumulative IPC: 0.275343 (Simulation time: 0 hr 14 min 37 sec) 
Heartbeat CPU 0 instructions: 20000000 cycles: 39885814 heartbeat IPC: 0.351588 cumulative IPC: 0.281446 (Simulation time: 0 hr 15 min 31 sec) 
Heartbeat CPU 0 instructions: 21000000 cycles: 42220784 heartbeat IPC: 0.428271 cumulative IPC: 0.2905 (Simulation time: 0 hr 16 min 21 sec) 
Heartbeat CPU 0 instructions: 22000000 cycles: 44523024 heartbeat IPC: 0.43436 cumulative IPC: 0.298745 (Simulation time: 0 hr 17 min 10 sec) 
Heartbeat CPU 0 instructions: 23000002 cycles: 46816332 heartbeat IPC: 0.436052 cumulative IPC: 0.306161 (Simulation time: 0 hr 18 min 0 sec) 
Heartbeat CPU 0 instructions: 24000000 cycles: 49150705 heartbeat IPC: 0.42838 cumulative IPC: 0.31253 (Simulation time: 0 hr 18 min 50 sec) 
Heartbeat CPU 0 instructions: 25000002 cycles: 51535733 heartbeat IPC: 0.419283 cumulative IPC: 0.317927 (Simulation time: 0 hr 19 min 39 sec) 
Heartbeat CPU 0 instructions: 26000002 cycles: 53548967 heartbeat IPC: 0.496713 cumulative IPC: 0.325243 (Simulation time: 0 hr 20 min 25 sec) 
Heartbeat CPU 0 instructions: 27000002 cycles: 55547824 heartbeat IPC: 0.500286 cumulative IPC: 0.332078 (Simulation time: 0 hr 21 min 16 sec) 
Heartbeat CPU 0 instructions: 28000000 cycles: 57422933 heartbeat IPC: 0.533301 cumulative IPC: 0.339188 (Simulation time: 0 hr 22 min 10 sec) 
Heartbeat CPU 0 instructions: 29000003 cycles: 59344017 heartbeat IPC: 0.520541 cumulative IPC: 0.345524 (Simulation time: 0 hr 23 min 12 sec) 
Heartbeat CPU 0 instructions: 30000002 cycles: 61416232 heartbeat IPC: 0.482575 cumulative IPC: 0.350501 (Simulation time: 0 hr 23 min 59 sec) 
Heartbeat CPU 0 instructions: 31000002 cycles: 62942694 heartbeat IPC: 0.65511 cumulative IPC: 0.358437 (Simulation time: 0 hr 24 min 46 sec) 
Heartbeat CPU 0 instructions: 32000000 cycles: 64408313 heartbeat IPC: 0.682304 cumulative IPC: 0.366341 (Simulation time: 0 hr 25 min 34 sec) 
Heartbeat CPU 0 instructions: 33000000 cycles: 65859803 heartbeat IPC: 0.688947 cumulative IPC: 0.373955 (Simulation time: 0 hr 26 min 24 sec) 
Heartbeat CPU 0 instructions: 34000001 cycles: 67325549 heartbeat IPC: 0.682247 cumulative IPC: 0.381131 (Simulation time: 0 hr 27 min 19 sec) 
Heartbeat CPU 0 instructions: 35000001 cycles: 68769362 heartbeat IPC: 0.69261 cumulative IPC: 0.388112 (Simulation time: 0 hr 28 min 3 sec) 
Heartbeat CPU 0 instructions: 36000000 cycles: 70289769 heartbeat IPC: 0.657718 cumulative IPC: 0.394329 (Simulation time: 0 hr 28 min 48 sec) 
Heartbeat CPU 0 instructions: 37000002 cycles: 71949973 heartbeat IPC: 0.602337 cumulative IPC: 0.399438 (Simulation time: 0 hr 29 min 38 sec) 
Heartbeat CPU 0 instructions: 38000002 cycles: 73418583 heartbeat IPC: 0.680916 cumulative IPC: 0.405424 (Simulation time: 0 hr 30 min 23 sec) 
Heartbeat CPU 0 instructions: 39000000 cycles: 74890531 heartbeat IPC: 0.67937 cumulative IPC: 0.41114 (Simulation time: 0 hr 31 min 7 sec) 
Heartbeat CPU 0 instructions: 40000000 cycles: 76356806 heartbeat IPC: 0.682 cumulative IPC: 0.416656 (Simulation time: 0 hr 31 min 52 sec) 
Heartbeat CPU 0 instructions: 41000003 cycles: 77822208 heartbeat IPC: 0.682409 cumulative IPC: 0.421957 (Simulation time: 0 hr 32 min 38 sec) 
Heartbeat CPU 0 instructions: 42000000 cycles: 79279805 heartbeat IPC: 0.686059 cumulative IPC: 0.427095 (Simulation time: 0 hr 33 min 24 sec) 
Heartbeat CPU 0 instructions: 43000002 cycles: 82200826 heartbeat IPC: 0.342347 cumulative IPC: 0.423915 (Simulation time: 0 hr 34 min 20 sec) 
Heartbeat CPU 0 instructions: 44000000 cycles: 85651264 heartbeat IPC: 0.289818 cumulative IPC: 0.418224 (Simulation time: 0 hr 35 min 25 sec) 
Heartbeat CPU 0 instructions: 45000003 cycles: 89095199 heartbeat IPC: 0.290366 cumulative IPC: 0.413027 (Simulation time: 0 hr 36 min 28 sec) 
Heartbeat CPU 0 instructions: 46000000 cycles: 92543314 heartbeat IPC: 0.290013 cumulative IPC: 0.408217 (Simulation time: 0 hr 37 min 33 sec) 
Heartbeat CPU 0 instructions: 47000000 cycles: 95988817 heartbeat IPC: 0.290233 cumulative IPC: 0.403781 (Simulation time: 0 hr 38 min 30 sec) 
Heartbeat CPU 0 instructions: 48000000 cycles: 99657039 heartbeat IPC: 0.272612 cumulative IPC: 0.398732 (Simulation time: 0 hr 39 min 39 sec) 
Heartbeat CPU 0 instructions: 49000000 cycles: 103366237 heartbeat IPC: 0.2696 cumulative IPC: 0.393895 (Simulation time: 0 hr 40 min 40 sec) 
Heartbeat CPU 0 instructions: 50000001 cycles: 107087459 heartbeat IPC: 0.268729 cumulative IPC: 0.389361 (Simulation time: 0 hr 41 min 42 sec) 
Heartbeat CPU 0 instructions: 51000003 cycles: 110803992 heartbeat IPC: 0.269069 cumulative IPC: 0.385161 (Simulation time: 0 hr 42 min 47 sec) 
Heartbeat CPU 0 instructions: 52000000 cycles: 114510027 heartbeat IPC: 0.269829 cumulative IPC: 0.381281 (Simulation time: 0 hr 43 min 46 sec) 
Heartbeat CPU 0 instructions: 53000000 cycles: 118301009 heartbeat IPC: 0.263784 cumulative IPC: 0.377372 (Simulation time: 0 hr 44 min 47 sec) 
Heartbeat CPU 0 instructions: 54000001 cycles: 120205835 heartbeat IPC: 0.524983 cumulative IPC: 0.379799 (Simulation time: 0 hr 45 min 38 sec) 
Heartbeat CPU 0 instructions: 55000000 cycles: 122121978 heartbeat IPC: 0.521881 cumulative IPC: 0.382111 (Simulation time: 0 hr 46 min 31 sec) 
Heartbeat CPU 0 instructions: 56000000 cycles: 124096784 heartbeat IPC: 0.506379 cumulative IPC: 0.38416 (Simulation time: 0 hr 47 min 25 sec) 
Heartbeat CPU 0 instructions: 57000002 cycles: 126060426 heartbeat IPC: 0.509259 cumulative IPC: 0.386178 (Simulation time: 0 hr 48 min 25 sec) 
Heartbeat CPU 0 instructions: 58000001 cycles: 127951140 heartbeat IPC: 0.5289 cumulative IPC: 0.388362 (Simulation time: 0 hr 49 min 13 sec) 
Heartbeat CPU 0 instructions: 59000002 cycles: 129830758 heartbeat IPC: 0.532024 cumulative IPC: 0.390514 (Simulation time: 0 hr 50 min 5 sec) 
Heartbeat CPU 0 instructions: 60000000 cycles: 131494768 heartbeat IPC: 0.600957 cumulative IPC: 0.393268 (Simulation time: 0 hr 50 min 51 sec) 
Heartbeat CPU 0 instructions: 61000002 cycles: 133166540 heartbeat IPC: 0.598169 cumulative IPC: 0.395927 (Simulation time: 0 hr 51 min 41 sec) 
Heartbeat CPU 0 instructions: 62000000 cycles: 134843246 heartbeat IPC: 0.596406 cumulative IPC: 0.398503 (Simulation time: 0 hr 52 min 33 sec) 
Heartbeat CPU 0 instructions: 63000000 cycles: 136534805 heartbeat IPC: 0.591171 cumulative IPC: 0.400969 (Simulation time: 0 hr 53 min 24 sec) 
Heartbeat CPU 0 instructions: 64000000 cycles: 138202483 heartbeat IPC: 0.599636 cumulative IPC: 0.403444 (Simulation time: 0 hr 54 min 14 sec) 
Heartbeat CPU 0 instructions: 65000001 cycles: 139647176 heartbeat IPC: 0.692189 cumulative IPC: 0.406528 (Simulation time: 0 hr 54 min 52 sec) 
Heartbeat CPU 0 instructions: 66000003 cycles: 141099450 heartbeat IPC: 0.688577 cumulative IPC: 0.409523 (Simulation time: 0 hr 55 min 31 sec) 
Heartbeat CPU 0 instructions: 67000003 cycles: 142541336 heartbeat IPC: 0.693536 cumulative IPC: 0.412487 (Simulation time: 0 hr 56 min 7 sec) 
Heartbeat CPU 0 instructions: 68000000 cycles: 143978745 heartbeat IPC: 0.695694 cumulative IPC: 0.415402 (Simulation time: 0 hr 56 min 40 sec) 
Heartbeat CPU 0 instructions: 69000002 cycles: 145421624 heartbeat IPC: 0.69306 cumulative IPC: 0.418242 (Simulation time: 0 hr 57 min 11 sec) 
Heartbeat CPU 0 instructions: 70000000 cycles: 147030158 heartbeat IPC: 0.621683 cumulative IPC: 0.420536 (Simulation time: 0 hr 57 min 43 sec) 
Heartbeat CPU 0 instructions: 71000000 cycles: 148479810 heartbeat IPC: 0.689821 cumulative IPC: 0.423244 (Simulation time: 0 hr 58 min 13 sec) 
Heartbeat CPU 0 instructions: 72000000 cycles: 149938362 heartbeat IPC: 0.685611 cumulative IPC: 0.425873 (Simulation time: 0 hr 58 min 41 sec) 
Heartbeat CPU 0 instructions: 73000002 cycles: 151400209 heartbeat IPC: 0.684067 cumulative IPC: 0.42844 (Simulation time: 0 hr 59 min 8 sec) 
Heartbeat CPU 0 instructions: 74000000 cycles: 152860793 heartbeat IPC: 0.684656 cumulative IPC: 0.43096 (Simulation time: 0 hr 59 min 35 sec) 
Heartbeat CPU 0 instructions: 75000000 cycles: 154319185 heartbeat IPC: 0.685687 cumulative IPC: 0.433437 (Simulation time: 1 hr 0 min 2 sec) 
Heartbeat CPU 0 instructions: 76000000 cycles: 155779061 heartbeat IPC: 0.68499 cumulative IPC: 0.435862 (Simulation time: 1 hr 0 min 27 sec) 
Heartbeat CPU 0 instructions: 77000001 cycles: 159155258 heartbeat IPC: 0.296192 cumulative IPC: 0.432816 (Simulation time: 1 hr 0 min 59 sec) 
Heartbeat CPU 0 instructions: 78000000 cycles: 162656083 heartbeat IPC: 0.285647 cumulative IPC: 0.429561 (Simulation time: 1 hr 1 min 30 sec) 
Heartbeat CPU 0 instructions: 79000002 cycles: 166147804 heartbeat IPC: 0.286392 cumulative IPC: 0.426471 (Simulation time: 1 hr 2 min 0 sec) 
Heartbeat CPU 0 instructions: 80000000 cycles: 169646910 heartbeat IPC: 0.285787 cumulative IPC: 0.423493 (Simulation time: 1 hr 2 min 23 sec) 
Heartbeat CPU 0 instructions: 81000000 cycles: 173139941 heartbeat IPC: 0.286284 cumulative IPC: 0.420654 (Simulation time: 1 hr 2 min 43 sec) 
Heartbeat CPU 0 instructions: 82000002 cycles: 176896334 heartbeat IPC: 0.266213 cumulative IPC: 0.417291 (Simulation time: 1 hr 3 min 4 sec) 
Heartbeat CPU 0 instructions: 83000002 cycles: 180628971 heartbeat IPC: 0.267907 cumulative IPC: 0.414128 (Simulation time: 1 hr 3 min 26 sec) 
Heartbeat CPU 0 instructions: 84000000 cycles: 184379124 heartbeat IPC: 0.266655 cumulative IPC: 0.411056 (Simulation time: 1 hr 3 min 46 sec) 
Heartbeat CPU 0 instructions: 85000000 cycles: 188118068 heartbeat IPC: 0.267455 cumulative IPC: 0.408134 (Simulation time: 1 hr 4 min 5 sec) 
Heartbeat CPU 0 instructions: 86000000 cycles: 191862565 heartbeat IPC: 0.267059 cumulative IPC: 0.405317 (Simulation time: 1 hr 4 min 23 sec) 
Heartbeat CPU 0 instructions: 87000000 cycles: 195280845 heartbeat IPC: 0.292545 cumulative IPC: 0.403298 (Simulation time: 1 hr 4 min 39 sec) 
Heartbeat CPU 0 instructions: 88000000 cycles: 197024427 heartbeat IPC: 0.573532 cumulative IPC: 0.404839 (Simulation time: 1 hr 4 min 51 sec) 
Heartbeat CPU 0 instructions: 89000001 cycles: 198762329 heartbeat IPC: 0.575407 cumulative IPC: 0.406363 (Simulation time: 1 hr 5 min 2 sec) 
Heartbeat CPU 0 instructions: 90000001 cycles: 200496017 heartbeat IPC: 0.576805 cumulative IPC: 0.40787 (Simulation time: 1 hr 5 min 12 sec) 
Heartbeat CPU 0 instructions: 91000001 cycles: 202236853 heartbeat IPC: 0.574437 cumulative IPC: 0.409335 (Simulation time: 1 hr 5 min 20 sec) 
Heartbeat CPU 0 instructions: 92000000 cycles: 203993153 heartbeat IPC: 0.569378 cumulative IPC: 0.410743 (Simulation time: 1 hr 5 min 28 sec) 
Heartbeat CPU 0 instructions: 93000002 cycles: 205707533 heartbeat IPC: 0.583302 cumulative IPC: 0.412212 (Simulation time: 1 hr 5 min 35 sec) 
Heartbeat CPU 0 instructions: 94000001 cycles: 207252857 heartbeat IPC: 0.647113 cumulative IPC: 0.414001 (Simulation time: 1 hr 5 min 42 sec) 
Heartbeat CPU 0 instructions: 95000000 cycles: 208787592 heartbeat IPC: 0.651578 cumulative IPC: 0.415785 (Simulation time: 1 hr 5 min 49 sec) 
Heartbeat CPU 0 instructions: 96000000 cycles: 210320541 heartbeat IPC: 0.652337 cumulative IPC: 0.417546 (Simulation time: 1 hr 5 min 54 sec) 
Heartbeat CPU 0 instructions: 97000001 cycles: 211866459 heartbeat IPC: 0.646865 cumulative IPC: 0.419254 (Simulation time: 1 hr 5 min 59 sec) 
Heartbeat CPU 0 instructions: 98000000 cycles: 213497731 heartbeat IPC: 0.613018 cumulative IPC: 0.420765 (Simulation time: 1 hr 6 min 4 sec) 
Heartbeat CPU 0 instructions: 99000001 cycles: 214974764 heartbeat IPC: 0.677034 cumulative IPC: 0.422562 (Simulation time: 1 hr 6 min 9 sec) 
Heartbeat CPU 0 instructions: 100000000 cycles: 216455290 heartbeat IPC: 0.675435 cumulative IPC: 0.424328 (Simulation time: 1 hr 6 min 14 sec) 
Heartbeat CPU 0 instructions: 101000002 cycles: 217912071 heartbeat IPC: 0.686446 cumulative IPC: 0.426116 (Simulation time: 1 hr 6 min 19 sec) 
Heartbeat CPU 0 instructions: 102000003 cycles: 219373406 heartbeat IPC: 0.684307 cumulative IPC: 0.42787 (Simulation time: 1 hr 6 min 24 sec) 
Heartbeat CPU 0 instructions: 103000001 cycles: 220830646 heartbeat IPC: 0.686227 cumulative IPC: 0.42961 (Simulation time: 1 hr 6 min 29 sec) 
Heartbeat CPU 0 instructions: 104000000 cycles: 222448147 heartbeat IPC: 0.618237 cumulative IPC: 0.431009 (Simulation time: 1 hr 6 min 34 sec) 
Heartbeat CPU 0 instructions: 105000003 cycles: 223918601 heartbeat IPC: 0.680064 cumulative IPC: 0.432677 (Simulation time: 1 hr 6 min 39 sec) 
Heartbeat CPU 0 instructions: 106000001 cycles: 225403034 heartbeat IPC: 0.673657 cumulative IPC: 0.434295 (Simulation time: 1 hr 6 min 44 sec) 
Heartbeat CPU 0 instructions: 107000001 cycles: 226897262 heartbeat IPC: 0.669242 cumulative IPC: 0.435872 (Simulation time: 1 hr 6 min 48 sec) 
Heartbeat CPU 0 instructions: 108000000 cycles: 228379876 heartbeat IPC: 0.674484 cumulative IPC: 0.437451 (Simulation time: 1 hr 6 min 54 sec) 
Heartbeat CPU 0 instructions: 109000000 cycles: 229862455 heartbeat IPC: 0.6745 cumulative IPC: 0.43901 (Simulation time: 1 hr 6 min 59 sec) 
Heartbeat CPU 0 instructions: 110000002 cycles: 231650199 heartbeat IPC: 0.559365 cumulative IPC: 0.439957 (Simulation time: 1 hr 7 min 4 sec) 
Finished CPU 0 instructions: 100000000 cycles: 227295171 cummulative IPC: 0.439957 (Simulation time: 1 hr 7 min 4 sec) 

ChampSim completed all CPUs

Region of Interest Statistics

CPU 0 cummulative IPC: 0.439957 instructions: 100000000 cycles: 227295171
LLC TOTAL     ACCESS:   13009858  HIT:   10544226  MISS:    2465632
LLC LOAD      ACCESS:    5289523  HIT:    4361580  MISS:     927943
LLC RFO       ACCESS:          0  HIT:          0  MISS:          0
LLC PREFETCH  ACCESS:    6807042  HIT:    5275723  MISS:    1531319
LLC WRITEBACK ACCESS:     913293  HIT:     906923  MISS:       6370
Insertion Distribution: 
	LOAD 144597 0 29810 795719 
	RFO 253 0 14118 3724 
	PREF 0 608746 176249 818261 
	WRITEBACK 0 0 0 14566 
Total Prefetch Downgrades: 541745
