
*** ChampSim Multicore Out-of-Order Simulator ***

Warmup Instructions: 10000000
Simulation Instructions: 100000000
Configuration: 2
Number of CPUs: 1
LLC sets: 2048
LLC ways: 16
Off-chip DRAM Channels: 1 Width: 64-bit Data Rate: 1600 MT/s

CPU 0 runs /datasets/cs240c-wi22-a00-public/data/Assignment2-gz/bzip2_259B.trace.gz
CPU 0 L1D next line prefetcher
CPU 0 L2C IP-based stride prefetcher
Initialize SRRIP state
Heartbeat CPU 0 instructions: 1000002 cycles: 428875 heartbeat IPC: 2.33169 cumulative IPC: 2.33169 (Simulation time: 0 hr 0 min 37 sec) 
Heartbeat CPU 0 instructions: 2000003 cycles: 861057 heartbeat IPC: 2.31384 cumulative IPC: 2.32273 (Simulation time: 0 hr 1 min 9 sec) 
Heartbeat CPU 0 instructions: 3000001 cycles: 1286790 heartbeat IPC: 2.34889 cumulative IPC: 2.33138 (Simulation time: 0 hr 1 min 38 sec) 
Heartbeat CPU 0 instructions: 4000000 cycles: 1685062 heartbeat IPC: 2.51084 cumulative IPC: 2.3738 (Simulation time: 0 hr 2 min 4 sec) 
Heartbeat CPU 0 instructions: 5000001 cycles: 2103495 heartbeat IPC: 2.38987 cumulative IPC: 2.377 (Simulation time: 0 hr 2 min 37 sec) 
Heartbeat CPU 0 instructions: 6000001 cycles: 2532858 heartbeat IPC: 2.32903 cumulative IPC: 2.36887 (Simulation time: 0 hr 3 min 12 sec) 
Heartbeat CPU 0 instructions: 7000003 cycles: 2961906 heartbeat IPC: 2.33075 cumulative IPC: 2.36334 (Simulation time: 0 hr 3 min 43 sec) 
Heartbeat CPU 0 instructions: 8000000 cycles: 3391719 heartbeat IPC: 2.32659 cumulative IPC: 2.35869 (Simulation time: 0 hr 4 min 15 sec) 
Heartbeat CPU 0 instructions: 9000000 cycles: 3819845 heartbeat IPC: 2.33576 cumulative IPC: 2.35612 (Simulation time: 0 hr 4 min 49 sec) 
Heartbeat CPU 0 instructions: 10000002 cycles: 4193917 heartbeat IPC: 2.67329 cumulative IPC: 2.38441 (Simulation time: 0 hr 5 min 16 sec) 

Warmup complete CPU 0 instructions: 10000002 cycles: 4193917 (Simulation time: 0 hr 5 min 16 sec) 

Heartbeat CPU 0 instructions: 11000002 cycles: 5086443 heartbeat IPC: 1.12042 cumulative IPC: 1.12042 (Simulation time: 0 hr 5 min 49 sec) 
Heartbeat CPU 0 instructions: 12000000 cycles: 6209157 heartbeat IPC: 0.890697 cumulative IPC: 0.992437 (Simulation time: 0 hr 6 min 24 sec) 
Heartbeat CPU 0 instructions: 13000002 cycles: 7155193 heartbeat IPC: 1.05704 cumulative IPC: 1.01308 (Simulation time: 0 hr 7 min 2 sec) 
Heartbeat CPU 0 instructions: 14000003 cycles: 8167897 heartbeat IPC: 0.987456 cumulative IPC: 1.00655 (Simulation time: 0 hr 7 min 44 sec) 
Heartbeat CPU 0 instructions: 15000002 cycles: 9230315 heartbeat IPC: 0.941248 cumulative IPC: 0.992773 (Simulation time: 0 hr 8 min 22 sec) 
Heartbeat CPU 0 instructions: 16000000 cycles: 10257549 heartbeat IPC: 0.973486 cumulative IPC: 0.989506 (Simulation time: 0 hr 9 min 0 sec) 
Heartbeat CPU 0 instructions: 17000002 cycles: 11411734 heartbeat IPC: 0.866414 cumulative IPC: 0.969822 (Simulation time: 0 hr 9 min 37 sec) 
Heartbeat CPU 0 instructions: 18000001 cycles: 12599740 heartbeat IPC: 0.841746 cumulative IPC: 0.951721 (Simulation time: 0 hr 10 min 14 sec) 
Heartbeat CPU 0 instructions: 19000003 cycles: 13651313 heartbeat IPC: 0.950958 cumulative IPC: 0.951636 (Simulation time: 0 hr 10 min 45 sec) 
Heartbeat CPU 0 instructions: 20000000 cycles: 14727704 heartbeat IPC: 0.929028 cumulative IPC: 0.949326 (Simulation time: 0 hr 11 min 15 sec) 
Heartbeat CPU 0 instructions: 21000001 cycles: 15674289 heartbeat IPC: 1.05643 cumulative IPC: 0.958157 (Simulation time: 0 hr 11 min 45 sec) 
Heartbeat CPU 0 instructions: 22000001 cycles: 16622701 heartbeat IPC: 1.05439 cumulative IPC: 0.965501 (Simulation time: 0 hr 12 min 14 sec) 
Heartbeat CPU 0 instructions: 23000002 cycles: 17558277 heartbeat IPC: 1.06886 cumulative IPC: 0.972736 (Simulation time: 0 hr 12 min 42 sec) 
Heartbeat CPU 0 instructions: 24000000 cycles: 18486069 heartbeat IPC: 1.07783 cumulative IPC: 0.979558 (Simulation time: 0 hr 13 min 14 sec) 
Heartbeat CPU 0 instructions: 25000000 cycles: 19409186 heartbeat IPC: 1.08329 cumulative IPC: 0.985852 (Simulation time: 0 hr 13 min 44 sec) 
Heartbeat CPU 0 instructions: 26000000 cycles: 20404520 heartbeat IPC: 1.00469 cumulative IPC: 0.987008 (Simulation time: 0 hr 14 min 14 sec) 
Heartbeat CPU 0 instructions: 27000003 cycles: 21398206 heartbeat IPC: 1.00636 cumulative IPC: 0.988126 (Simulation time: 0 hr 14 min 47 sec) 
Heartbeat CPU 0 instructions: 28000000 cycles: 22345364 heartbeat IPC: 1.05579 cumulative IPC: 0.991656 (Simulation time: 0 hr 15 min 17 sec) 
Heartbeat CPU 0 instructions: 29000000 cycles: 23270781 heartbeat IPC: 1.08059 cumulative IPC: 0.995971 (Simulation time: 0 hr 15 min 49 sec) 
Heartbeat CPU 0 instructions: 30000000 cycles: 24297711 heartbeat IPC: 0.973776 cumulative IPC: 0.994837 (Simulation time: 0 hr 16 min 21 sec) 
Heartbeat CPU 0 instructions: 31000001 cycles: 25221524 heartbeat IPC: 1.08247 cumulative IPC: 0.998687 (Simulation time: 0 hr 16 min 51 sec) 
Heartbeat CPU 0 instructions: 32000000 cycles: 26126350 heartbeat IPC: 1.10518 cumulative IPC: 1.00308 (Simulation time: 0 hr 17 min 19 sec) 
Heartbeat CPU 0 instructions: 33000003 cycles: 27440402 heartbeat IPC: 0.761007 cumulative IPC: 0.989397 (Simulation time: 0 hr 17 min 48 sec) 
Heartbeat CPU 0 instructions: 34000003 cycles: 29151322 heartbeat IPC: 0.584481 cumulative IPC: 0.961638 (Simulation time: 0 hr 18 min 24 sec) 
Heartbeat CPU 0 instructions: 35000002 cycles: 30760558 heartbeat IPC: 0.621412 cumulative IPC: 0.94103 (Simulation time: 0 hr 18 min 58 sec) 
Heartbeat CPU 0 instructions: 36000000 cycles: 32104476 heartbeat IPC: 0.744092 cumulative IPC: 0.931547 (Simulation time: 0 hr 19 min 30 sec) 
Heartbeat CPU 0 instructions: 37000002 cycles: 33147493 heartbeat IPC: 0.958759 cumulative IPC: 0.932527 (Simulation time: 0 hr 19 min 58 sec) 
Heartbeat CPU 0 instructions: 38000003 cycles: 34263266 heartbeat IPC: 0.896241 cumulative IPC: 0.931181 (Simulation time: 0 hr 20 min 27 sec) 
Heartbeat CPU 0 instructions: 39000001 cycles: 35407239 heartbeat IPC: 0.874145 cumulative IPC: 0.92909 (Simulation time: 0 hr 20 min 54 sec) 
Heartbeat CPU 0 instructions: 40000000 cycles: 36476806 heartbeat IPC: 0.934957 cumulative IPC: 0.929285 (Simulation time: 0 hr 21 min 23 sec) 
Heartbeat CPU 0 instructions: 41000001 cycles: 37666348 heartbeat IPC: 0.840661 cumulative IPC: 0.926135 (Simulation time: 0 hr 21 min 54 sec) 
Heartbeat CPU 0 instructions: 42000000 cycles: 38875428 heartbeat IPC: 0.827074 cumulative IPC: 0.922682 (Simulation time: 0 hr 22 min 28 sec) 
Heartbeat CPU 0 instructions: 43000003 cycles: 40091943 heartbeat IPC: 0.822023 cumulative IPC: 0.919271 (Simulation time: 0 hr 22 min 56 sec) 
Heartbeat CPU 0 instructions: 44000000 cycles: 41305515 heartbeat IPC: 0.824011 cumulative IPC: 0.916156 (Simulation time: 0 hr 23 min 28 sec) 
Heartbeat CPU 0 instructions: 45000000 cycles: 42527258 heartbeat IPC: 0.818503 cumulative IPC: 0.913043 (Simulation time: 0 hr 23 min 58 sec) 
Heartbeat CPU 0 instructions: 46000002 cycles: 43766153 heartbeat IPC: 0.807173 cumulative IPC: 0.909729 (Simulation time: 0 hr 24 min 26 sec) 
Heartbeat CPU 0 instructions: 47000000 cycles: 44997293 heartbeat IPC: 0.812254 cumulative IPC: 0.906788 (Simulation time: 0 hr 24 min 54 sec) 
Heartbeat CPU 0 instructions: 48000000 cycles: 46235480 heartbeat IPC: 0.807632 cumulative IPC: 0.903867 (Simulation time: 0 hr 25 min 23 sec) 
Heartbeat CPU 0 instructions: 49000003 cycles: 47503573 heartbeat IPC: 0.788588 cumulative IPC: 0.900492 (Simulation time: 0 hr 25 min 53 sec) 
Heartbeat CPU 0 instructions: 50000001 cycles: 48542932 heartbeat IPC: 0.96213 cumulative IPC: 0.901937 (Simulation time: 0 hr 26 min 22 sec) 
Heartbeat CPU 0 instructions: 51000002 cycles: 49706519 heartbeat IPC: 0.859412 cumulative IPC: 0.900849 (Simulation time: 0 hr 26 min 51 sec) 
Heartbeat CPU 0 instructions: 52000000 cycles: 50824678 heartbeat IPC: 0.894325 cumulative IPC: 0.900693 (Simulation time: 0 hr 27 min 20 sec) 
Heartbeat CPU 0 instructions: 53000001 cycles: 52020892 heartbeat IPC: 0.835972 cumulative IPC: 0.899074 (Simulation time: 0 hr 27 min 48 sec) 
Heartbeat CPU 0 instructions: 54000000 cycles: 53247225 heartbeat IPC: 0.815438 cumulative IPC: 0.896983 (Simulation time: 0 hr 28 min 19 sec) 
Heartbeat CPU 0 instructions: 55000000 cycles: 54398826 heartbeat IPC: 0.868356 cumulative IPC: 0.896327 (Simulation time: 0 hr 28 min 47 sec) 
Heartbeat CPU 0 instructions: 56000000 cycles: 55622963 heartbeat IPC: 0.816902 cumulative IPC: 0.894436 (Simulation time: 0 hr 29 min 17 sec) 
Heartbeat CPU 0 instructions: 57000000 cycles: 56844021 heartbeat IPC: 0.818962 cumulative IPC: 0.892686 (Simulation time: 0 hr 29 min 46 sec) 
Heartbeat CPU 0 instructions: 58000002 cycles: 57876748 heartbeat IPC: 0.968312 cumulative IPC: 0.894141 (Simulation time: 0 hr 30 min 14 sec) 
Heartbeat CPU 0 instructions: 59000000 cycles: 58977649 heartbeat IPC: 0.908345 cumulative IPC: 0.894426 (Simulation time: 0 hr 30 min 44 sec) 
Heartbeat CPU 0 instructions: 60000000 cycles: 60156772 heartbeat IPC: 0.848088 cumulative IPC: 0.89345 (Simulation time: 0 hr 31 min 17 sec) 
Heartbeat CPU 0 instructions: 61000000 cycles: 61301103 heartbeat IPC: 0.873873 cumulative IPC: 0.893057 (Simulation time: 0 hr 31 min 46 sec) 
Heartbeat CPU 0 instructions: 62000002 cycles: 62146911 heartbeat IPC: 1.1823 cumulative IPC: 0.897279 (Simulation time: 0 hr 32 min 14 sec) 
Heartbeat CPU 0 instructions: 63000003 cycles: 63081656 heartbeat IPC: 1.06981 cumulative IPC: 0.900018 (Simulation time: 0 hr 32 min 51 sec) 
Heartbeat CPU 0 instructions: 64000000 cycles: 64183751 heartbeat IPC: 0.90736 cumulative IPC: 0.900153 (Simulation time: 0 hr 33 min 33 sec) 
Heartbeat CPU 0 instructions: 65000003 cycles: 65198888 heartbeat IPC: 0.985092 cumulative IPC: 0.901566 (Simulation time: 0 hr 34 min 10 sec) 
Heartbeat CPU 0 instructions: 66000003 cycles: 66207505 heartbeat IPC: 0.991457 cumulative IPC: 0.903028 (Simulation time: 0 hr 34 min 48 sec) 
Heartbeat CPU 0 instructions: 67000003 cycles: 67301513 heartbeat IPC: 0.91407 cumulative IPC: 0.903219 (Simulation time: 0 hr 35 min 26 sec) 
Heartbeat CPU 0 instructions: 68000000 cycles: 68434835 heartbeat IPC: 0.882359 cumulative IPC: 0.902851 (Simulation time: 0 hr 36 min 4 sec) 
Heartbeat CPU 0 instructions: 69000003 cycles: 69575065 heartbeat IPC: 0.877019 cumulative IPC: 0.902401 (Simulation time: 0 hr 36 min 46 sec) 
Heartbeat CPU 0 instructions: 70000003 cycles: 71047734 heartbeat IPC: 0.679039 cumulative IPC: 0.897481 (Simulation time: 0 hr 37 min 31 sec) 
Heartbeat CPU 0 instructions: 71000000 cycles: 72958260 heartbeat IPC: 0.523414 cumulative IPC: 0.887088 (Simulation time: 0 hr 38 min 10 sec) 
Heartbeat CPU 0 instructions: 72000000 cycles: 74491083 heartbeat IPC: 0.652391 cumulative IPC: 0.88197 (Simulation time: 0 hr 38 min 47 sec) 
Heartbeat CPU 0 instructions: 73000001 cycles: 76375923 heartbeat IPC: 0.53055 cumulative IPC: 0.872794 (Simulation time: 0 hr 39 min 28 sec) 
Heartbeat CPU 0 instructions: 74000001 cycles: 78387270 heartbeat IPC: 0.497179 cumulative IPC: 0.862611 (Simulation time: 0 hr 40 min 8 sec) 
Heartbeat CPU 0 instructions: 75000000 cycles: 80378474 heartbeat IPC: 0.502208 cumulative IPC: 0.853191 (Simulation time: 0 hr 40 min 46 sec) 
Heartbeat CPU 0 instructions: 76000000 cycles: 82203931 heartbeat IPC: 0.547808 cumulative IPC: 0.846045 (Simulation time: 0 hr 41 min 24 sec) 
Heartbeat CPU 0 instructions: 77000003 cycles: 83466689 heartbeat IPC: 0.79192 cumulative IPC: 0.845183 (Simulation time: 0 hr 41 min 57 sec) 
Heartbeat CPU 0 instructions: 78000000 cycles: 84709801 heartbeat IPC: 0.80443 cumulative IPC: 0.844554 (Simulation time: 0 hr 42 min 32 sec) 
Heartbeat CPU 0 instructions: 79000003 cycles: 86057101 heartbeat IPC: 0.742227 cumulative IPC: 0.84287 (Simulation time: 0 hr 43 min 6 sec) 
Heartbeat CPU 0 instructions: 80000000 cycles: 87815069 heartbeat IPC: 0.568837 cumulative IPC: 0.837109 (Simulation time: 0 hr 43 min 40 sec) 
Heartbeat CPU 0 instructions: 81000001 cycles: 89790309 heartbeat IPC: 0.506268 cumulative IPC: 0.829474 (Simulation time: 0 hr 44 min 20 sec) 
Heartbeat CPU 0 instructions: 82000000 cycles: 91715802 heartbeat IPC: 0.519347 cumulative IPC: 0.822651 (Simulation time: 0 hr 45 min 1 sec) 
Heartbeat CPU 0 instructions: 83000002 cycles: 93513226 heartbeat IPC: 0.556353 cumulative IPC: 0.817293 (Simulation time: 0 hr 45 min 37 sec) 
Heartbeat CPU 0 instructions: 84000000 cycles: 94713887 heartbeat IPC: 0.832873 cumulative IPC: 0.817499 (Simulation time: 0 hr 46 min 10 sec) 
Heartbeat CPU 0 instructions: 85000003 cycles: 95884358 heartbeat IPC: 0.85436 cumulative IPC: 0.81797 (Simulation time: 0 hr 46 min 48 sec) 
Heartbeat CPU 0 instructions: 86000003 cycles: 97071078 heartbeat IPC: 0.842659 cumulative IPC: 0.818285 (Simulation time: 0 hr 47 min 24 sec) 
Heartbeat CPU 0 instructions: 87000002 cycles: 98254351 heartbeat IPC: 0.845113 cumulative IPC: 0.818623 (Simulation time: 0 hr 47 min 58 sec) 
Heartbeat CPU 0 instructions: 88000000 cycles: 99423933 heartbeat IPC: 0.855005 cumulative IPC: 0.819069 (Simulation time: 0 hr 48 min 29 sec) 
Heartbeat CPU 0 instructions: 89000002 cycles: 100430938 heartbeat IPC: 0.993046 cumulative IPC: 0.82089 (Simulation time: 0 hr 48 min 58 sec) 
Heartbeat CPU 0 instructions: 90000001 cycles: 101554355 heartbeat IPC: 0.890141 cumulative IPC: 0.821689 (Simulation time: 0 hr 49 min 32 sec) 
Heartbeat CPU 0 instructions: 91000002 cycles: 102667807 heartbeat IPC: 0.898109 cumulative IPC: 0.822553 (Simulation time: 0 hr 50 min 0 sec) 
Heartbeat CPU 0 instructions: 92000000 cycles: 103707987 heartbeat IPC: 0.96137 cumulative IPC: 0.824004 (Simulation time: 0 hr 50 min 29 sec) 
Heartbeat CPU 0 instructions: 93000000 cycles: 104896151 heartbeat IPC: 0.841635 cumulative IPC: 0.824212 (Simulation time: 0 hr 50 min 54 sec) 
Heartbeat CPU 0 instructions: 94000003 cycles: 106072354 heartbeat IPC: 0.850196 cumulative IPC: 0.824512 (Simulation time: 0 hr 51 min 22 sec) 
Heartbeat CPU 0 instructions: 95000002 cycles: 107257476 heartbeat IPC: 0.843794 cumulative IPC: 0.824734 (Simulation time: 0 hr 51 min 47 sec) 
Heartbeat CPU 0 instructions: 96000000 cycles: 108427132 heartbeat IPC: 0.85495 cumulative IPC: 0.825073 (Simulation time: 0 hr 52 min 14 sec) 
Heartbeat CPU 0 instructions: 97000002 cycles: 109644241 heartbeat IPC: 0.821621 cumulative IPC: 0.825033 (Simulation time: 0 hr 52 min 43 sec) 
Heartbeat CPU 0 instructions: 98000000 cycles: 110876162 heartbeat IPC: 0.811739 cumulative IPC: 0.82488 (Simulation time: 0 hr 53 min 11 sec) 
Heartbeat CPU 0 instructions: 99000000 cycles: 112116013 heartbeat IPC: 0.806549 cumulative IPC: 0.824669 (Simulation time: 0 hr 53 min 38 sec) 
Heartbeat CPU 0 instructions: 100000000 cycles: 113358087 heartbeat IPC: 0.805105 cumulative IPC: 0.824446 (Simulation time: 0 hr 54 min 4 sec) 
Heartbeat CPU 0 instructions: 101000003 cycles: 114506004 heartbeat IPC: 0.871146 cumulative IPC: 0.824932 (Simulation time: 0 hr 54 min 26 sec) 
Heartbeat CPU 0 instructions: 102000000 cycles: 115625196 heartbeat IPC: 0.893499 cumulative IPC: 0.825621 (Simulation time: 0 hr 54 min 48 sec) 
Heartbeat CPU 0 instructions: 103000000 cycles: 116726552 heartbeat IPC: 0.907972 cumulative IPC: 0.826427 (Simulation time: 0 hr 55 min 11 sec) 
Heartbeat CPU 0 instructions: 104000000 cycles: 117880411 heartbeat IPC: 0.866657 cumulative IPC: 0.826835 (Simulation time: 0 hr 55 min 31 sec) 
Heartbeat CPU 0 instructions: 105000002 cycles: 119093239 heartbeat IPC: 0.824521 cumulative IPC: 0.826811 (Simulation time: 0 hr 55 min 53 sec) 
Heartbeat CPU 0 instructions: 106000001 cycles: 120226801 heartbeat IPC: 0.882174 cumulative IPC: 0.827352 (Simulation time: 0 hr 56 min 15 sec) 
Heartbeat CPU 0 instructions: 107000000 cycles: 121429333 heartbeat IPC: 0.831578 cumulative IPC: 0.827395 (Simulation time: 0 hr 56 min 35 sec) 
Heartbeat CPU 0 instructions: 108000000 cycles: 122628460 heartbeat IPC: 0.83394 cumulative IPC: 0.827461 (Simulation time: 0 hr 56 min 52 sec) 
Heartbeat CPU 0 instructions: 109000000 cycles: 123640962 heartbeat IPC: 0.987652 cumulative IPC: 0.828819 (Simulation time: 0 hr 57 min 10 sec) 
Heartbeat CPU 0 instructions: 110000000 cycles: 124803237 heartbeat IPC: 0.860382 cumulative IPC: 0.829123 (Simulation time: 0 hr 57 min 29 sec) 
Finished CPU 0 instructions: 100000002 cycles: 120609322 cummulative IPC: 0.829123 (Simulation time: 0 hr 57 min 29 sec) 

ChampSim completed all CPUs

Region of Interest Statistics

CPU 0 cummulative IPC: 0.829123 instructions: 100000002 cycles: 120609322
LLC TOTAL     ACCESS:    1373512  HIT:     590406  MISS:     783106
LLC LOAD      ACCESS:     396197  HIT:     209678  MISS:     186519
LLC RFO       ACCESS:     104382  HIT:      18237  MISS:      86145
LLC PREFETCH  ACCESS:     675952  HIT:     280309  MISS:     395643
LLC WRITEBACK ACCESS:     196981  HIT:      82182  MISS:     114799
Insertion Distribution: 
	LOAD 58968 0 71267 56430 
	RFO 10144 0 18326 73629 
	PREF 0 0 28614 367509 
	WRITEBACK 0 0 0 116854 
Total Prefetch Downgrades: 9925
