
*** ChampSim Multicore Out-of-Order Simulator ***

Warmup Instructions: 10000000
Simulation Instructions: 100000000
Configuration: 2
Number of CPUs: 1
LLC sets: 2048
LLC ways: 16
Off-chip DRAM Channels: 1 Width: 64-bit Data Rate: 1600 MT/s

CPU 0 runs /datasets/cs240c-wi22-a00-public/data/Assignment2-gz/mcf_250B.trace.gz
CPU 0 L1D next line prefetcher
CPU 0 L2C IP-based stride prefetcher
Initialize SRRIP state
Heartbeat CPU 0 instructions: 1000000 cycles: 535310 heartbeat IPC: 1.86808 cumulative IPC: 1.86808 (Simulation time: 0 hr 0 min 42 sec) 
Heartbeat CPU 0 instructions: 2000003 cycles: 1049411 heartbeat IPC: 1.94515 cumulative IPC: 1.90583 (Simulation time: 0 hr 1 min 27 sec) 
Heartbeat CPU 0 instructions: 3000002 cycles: 1546365 heartbeat IPC: 2.01226 cumulative IPC: 1.94003 (Simulation time: 0 hr 2 min 12 sec) 
Heartbeat CPU 0 instructions: 4000000 cycles: 2057958 heartbeat IPC: 1.95467 cumulative IPC: 1.94367 (Simulation time: 0 hr 3 min 5 sec) 
Heartbeat CPU 0 instructions: 5000002 cycles: 2564362 heartbeat IPC: 1.97471 cumulative IPC: 1.9498 (Simulation time: 0 hr 3 min 48 sec) 
Heartbeat CPU 0 instructions: 6000002 cycles: 3069832 heartbeat IPC: 1.97836 cumulative IPC: 1.9545 (Simulation time: 0 hr 4 min 32 sec) 
Heartbeat CPU 0 instructions: 7000002 cycles: 3611831 heartbeat IPC: 1.84502 cumulative IPC: 1.93808 (Simulation time: 0 hr 5 min 13 sec) 
Heartbeat CPU 0 instructions: 8000000 cycles: 4126862 heartbeat IPC: 1.94163 cumulative IPC: 1.93852 (Simulation time: 0 hr 5 min 56 sec) 
Heartbeat CPU 0 instructions: 9000002 cycles: 4641476 heartbeat IPC: 1.94321 cumulative IPC: 1.93904 (Simulation time: 0 hr 6 min 42 sec) 
Heartbeat CPU 0 instructions: 10000000 cycles: 5152839 heartbeat IPC: 1.95555 cumulative IPC: 1.94068 (Simulation time: 0 hr 7 min 27 sec) 

Warmup complete CPU 0 instructions: 10000003 cycles: 5152840 (Simulation time: 0 hr 7 min 27 sec) 

Heartbeat CPU 0 instructions: 11000001 cycles: 16068026 heartbeat IPC: 0.0916156 cumulative IPC: 0.0916153 (Simulation time: 0 hr 8 min 26 sec) 
Heartbeat CPU 0 instructions: 12000000 cycles: 30288653 heartbeat IPC: 0.0703203 cumulative IPC: 0.0795676 (Simulation time: 0 hr 9 min 37 sec) 
Heartbeat CPU 0 instructions: 13000001 cycles: 43087599 heartbeat IPC: 0.0781315 cumulative IPC: 0.0790831 (Simulation time: 0 hr 10 min 46 sec) 
Heartbeat CPU 0 instructions: 14000003 cycles: 53540370 heartbeat IPC: 0.0956686 cumulative IPC: 0.0826659 (Simulation time: 0 hr 11 min 49 sec) 
Heartbeat CPU 0 instructions: 15000002 cycles: 63820414 heartbeat IPC: 0.0972757 cumulative IPC: 0.0852259 (Simulation time: 0 hr 12 min 53 sec) 
Heartbeat CPU 0 instructions: 16000000 cycles: 74167620 heartbeat IPC: 0.0966443 cumulative IPC: 0.0869379 (Simulation time: 0 hr 13 min 54 sec) 
Heartbeat CPU 0 instructions: 17000000 cycles: 84777968 heartbeat IPC: 0.0942476 cumulative IPC: 0.0879119 (Simulation time: 0 hr 15 min 2 sec) 
Heartbeat CPU 0 instructions: 18000002 cycles: 95199900 heartbeat IPC: 0.0959517 cumulative IPC: 0.0888424 (Simulation time: 0 hr 16 min 13 sec) 
Heartbeat CPU 0 instructions: 19000000 cycles: 105562189 heartbeat IPC: 0.0965036 cumulative IPC: 0.0896331 (Simulation time: 0 hr 17 min 13 sec) 
Heartbeat CPU 0 instructions: 20000000 cycles: 115652807 heartbeat IPC: 0.099102 cumulative IPC: 0.0904977 (Simulation time: 0 hr 18 min 15 sec) 
Heartbeat CPU 0 instructions: 21000000 cycles: 125521128 heartbeat IPC: 0.101334 cumulative IPC: 0.0913862 (Simulation time: 0 hr 19 min 17 sec) 
Heartbeat CPU 0 instructions: 22000000 cycles: 135107880 heartbeat IPC: 0.104311 cumulative IPC: 0.0923396 (Simulation time: 0 hr 20 min 15 sec) 
Heartbeat CPU 0 instructions: 23000003 cycles: 145196616 heartbeat IPC: 0.0991207 cumulative IPC: 0.0928281 (Simulation time: 0 hr 21 min 13 sec) 
Heartbeat CPU 0 instructions: 24000000 cycles: 155060705 heartbeat IPC: 0.101378 cumulative IPC: 0.0933907 (Simulation time: 0 hr 22 min 16 sec) 
Heartbeat CPU 0 instructions: 25000002 cycles: 165388363 heartbeat IPC: 0.0968276 cumulative IPC: 0.0936122 (Simulation time: 0 hr 23 min 13 sec) 
Heartbeat CPU 0 instructions: 26000000 cycles: 176231237 heartbeat IPC: 0.0922263 cumulative IPC: 0.0935244 (Simulation time: 0 hr 24 min 13 sec) 
Heartbeat CPU 0 instructions: 27000003 cycles: 186946777 heartbeat IPC: 0.0933227 cumulative IPC: 0.0935125 (Simulation time: 0 hr 25 min 14 sec) 
Heartbeat CPU 0 instructions: 28000000 cycles: 197745532 heartbeat IPC: 0.092603 cumulative IPC: 0.0934615 (Simulation time: 0 hr 26 min 16 sec) 
Heartbeat CPU 0 instructions: 29000000 cycles: 208724011 heartbeat IPC: 0.0910873 cumulative IPC: 0.0933334 (Simulation time: 0 hr 27 min 21 sec) 
Heartbeat CPU 0 instructions: 30000001 cycles: 219405348 heartbeat IPC: 0.0936213 cumulative IPC: 0.0933478 (Simulation time: 0 hr 28 min 24 sec) 
Heartbeat CPU 0 instructions: 31000000 cycles: 230161400 heartbeat IPC: 0.0929708 cumulative IPC: 0.0933298 (Simulation time: 0 hr 29 min 25 sec) 
Heartbeat CPU 0 instructions: 32000000 cycles: 240463603 heartbeat IPC: 0.0970666 cumulative IPC: 0.0934934 (Simulation time: 0 hr 30 min 23 sec) 
Heartbeat CPU 0 instructions: 33000000 cycles: 251046979 heartbeat IPC: 0.0944878 cumulative IPC: 0.0935362 (Simulation time: 0 hr 31 min 23 sec) 
Heartbeat CPU 0 instructions: 34000000 cycles: 261676990 heartbeat IPC: 0.0940733 cumulative IPC: 0.0935584 (Simulation time: 0 hr 32 min 22 sec) 
Heartbeat CPU 0 instructions: 35000000 cycles: 274120056 heartbeat IPC: 0.080366 cumulative IPC: 0.0929481 (Simulation time: 0 hr 33 min 29 sec) 
Heartbeat CPU 0 instructions: 36000000 cycles: 288322543 heartbeat IPC: 0.0704102 cumulative IPC: 0.0918177 (Simulation time: 0 hr 34 min 39 sec) 
Heartbeat CPU 0 instructions: 37000002 cycles: 298696152 heartbeat IPC: 0.0963987 cumulative IPC: 0.0919796 (Simulation time: 0 hr 35 min 41 sec) 
Heartbeat CPU 0 instructions: 38000000 cycles: 309349757 heartbeat IPC: 0.0938648 cumulative IPC: 0.0920456 (Simulation time: 0 hr 36 min 48 sec) 
Heartbeat CPU 0 instructions: 39000000 cycles: 319969614 heartbeat IPC: 0.0941632 cumulative IPC: 0.0921171 (Simulation time: 0 hr 37 min 52 sec) 
Heartbeat CPU 0 instructions: 40000000 cycles: 330953772 heartbeat IPC: 0.0910402 cumulative IPC: 0.0920808 (Simulation time: 0 hr 38 min 57 sec) 
Heartbeat CPU 0 instructions: 41000000 cycles: 341704530 heartbeat IPC: 0.0930167 cumulative IPC: 0.0921107 (Simulation time: 0 hr 39 min 57 sec) 
Heartbeat CPU 0 instructions: 42000000 cycles: 352557437 heartbeat IPC: 0.0921412 cumulative IPC: 0.0921116 (Simulation time: 0 hr 41 min 2 sec) 
Heartbeat CPU 0 instructions: 43000000 cycles: 363539705 heartbeat IPC: 0.0910559 cumulative IPC: 0.0920793 (Simulation time: 0 hr 42 min 6 sec) 
Heartbeat CPU 0 instructions: 44000000 cycles: 374532501 heartbeat IPC: 0.0909687 cumulative IPC: 0.0920462 (Simulation time: 0 hr 43 min 15 sec) 
Heartbeat CPU 0 instructions: 45000000 cycles: 385134604 heartbeat IPC: 0.0943209 cumulative IPC: 0.0921097 (Simulation time: 0 hr 44 min 20 sec) 
Heartbeat CPU 0 instructions: 46000000 cycles: 395935735 heartbeat IPC: 0.0925829 cumulative IPC: 0.0921228 (Simulation time: 0 hr 45 min 25 sec) 
Heartbeat CPU 0 instructions: 47000002 cycles: 406386012 heartbeat IPC: 0.0956914 cumulative IPC: 0.0922157 (Simulation time: 0 hr 46 min 26 sec) 
Heartbeat CPU 0 instructions: 48000000 cycles: 416413066 heartbeat IPC: 0.09973 cumulative IPC: 0.0923989 (Simulation time: 0 hr 47 min 29 sec) 
Heartbeat CPU 0 instructions: 49000000 cycles: 427352445 heartbeat IPC: 0.0914129 cumulative IPC: 0.0923734 (Simulation time: 0 hr 48 min 31 sec) 
Heartbeat CPU 0 instructions: 50000002 cycles: 438626872 heartbeat IPC: 0.0886965 cumulative IPC: 0.0922777 (Simulation time: 0 hr 49 min 37 sec) 
Heartbeat CPU 0 instructions: 51000002 cycles: 449626953 heartbeat IPC: 0.0909084 cumulative IPC: 0.0922438 (Simulation time: 0 hr 50 min 36 sec) 
Heartbeat CPU 0 instructions: 52000000 cycles: 460469931 heartbeat IPC: 0.0922254 cumulative IPC: 0.0922434 (Simulation time: 0 hr 51 min 33 sec) 
Heartbeat CPU 0 instructions: 53000000 cycles: 470823862 heartbeat IPC: 0.0965817 cumulative IPC: 0.0923399 (Simulation time: 0 hr 52 min 35 sec) 
Heartbeat CPU 0 instructions: 54000000 cycles: 481331577 heartbeat IPC: 0.0951682 cumulative IPC: 0.0924023 (Simulation time: 0 hr 53 min 34 sec) 
Heartbeat CPU 0 instructions: 55000000 cycles: 491638898 heartbeat IPC: 0.0970184 cumulative IPC: 0.0925001 (Simulation time: 0 hr 54 min 28 sec) 
Heartbeat CPU 0 instructions: 56000000 cycles: 502154478 heartbeat IPC: 0.095097 cumulative IPC: 0.092555 (Simulation time: 0 hr 55 min 15 sec) 
Heartbeat CPU 0 instructions: 57000000 cycles: 512765097 heartbeat IPC: 0.0942452 cumulative IPC: 0.0925904 (Simulation time: 0 hr 55 min 59 sec) 
Heartbeat CPU 0 instructions: 58000000 cycles: 523416547 heartbeat IPC: 0.0938839 cumulative IPC: 0.0926169 (Simulation time: 0 hr 56 min 41 sec) 
Heartbeat CPU 0 instructions: 59000001 cycles: 533865015 heartbeat IPC: 0.0957079 cumulative IPC: 0.092678 (Simulation time: 0 hr 57 min 21 sec) 
Heartbeat CPU 0 instructions: 60000000 cycles: 543914719 heartbeat IPC: 0.0995053 cumulative IPC: 0.0928054 (Simulation time: 0 hr 57 min 57 sec) 
Heartbeat CPU 0 instructions: 61000001 cycles: 554385413 heartbeat IPC: 0.0955047 cumulative IPC: 0.0928568 (Simulation time: 0 hr 58 min 34 sec) 
Heartbeat CPU 0 instructions: 62000000 cycles: 563151237 heartbeat IPC: 0.114079 cumulative IPC: 0.0931902 (Simulation time: 0 hr 59 min 7 sec) 
Heartbeat CPU 0 instructions: 63000001 cycles: 573735729 heartbeat IPC: 0.0944779 cumulative IPC: 0.0932142 (Simulation time: 0 hr 59 min 42 sec) 
Heartbeat CPU 0 instructions: 64000000 cycles: 584304758 heartbeat IPC: 0.094616 cumulative IPC: 0.0932398 (Simulation time: 1 hr 0 min 15 sec) 
Heartbeat CPU 0 instructions: 65000000 cycles: 593851989 heartbeat IPC: 0.104742 cumulative IPC: 0.0934263 (Simulation time: 1 hr 0 min 46 sec) 
Heartbeat CPU 0 instructions: 66000000 cycles: 604210468 heartbeat IPC: 0.0965393 cumulative IPC: 0.0934801 (Simulation time: 1 hr 1 min 16 sec) 
Heartbeat CPU 0 instructions: 67000000 cycles: 614868865 heartbeat IPC: 0.0938227 cumulative IPC: 0.0934861 (Simulation time: 1 hr 1 min 46 sec) 
Heartbeat CPU 0 instructions: 68000000 cycles: 625030385 heartbeat IPC: 0.0984105 cumulative IPC: 0.0935669 (Simulation time: 1 hr 2 min 12 sec) 
Heartbeat CPU 0 instructions: 69000000 cycles: 635595860 heartbeat IPC: 0.0946479 cumulative IPC: 0.093585 (Simulation time: 1 hr 2 min 36 sec) 
Heartbeat CPU 0 instructions: 70000000 cycles: 646072275 heartbeat IPC: 0.0954525 cumulative IPC: 0.0936155 (Simulation time: 1 hr 3 min 0 sec) 
Heartbeat CPU 0 instructions: 71000000 cycles: 656362590 heartbeat IPC: 0.0971788 cumulative IPC: 0.0936718 (Simulation time: 1 hr 3 min 23 sec) 
Heartbeat CPU 0 instructions: 72000000 cycles: 666882791 heartbeat IPC: 0.0950552 cumulative IPC: 0.0936938 (Simulation time: 1 hr 3 min 45 sec) 
Heartbeat CPU 0 instructions: 73000001 cycles: 677026186 heartbeat IPC: 0.0985864 cumulative IPC: 0.0937677 (Simulation time: 1 hr 4 min 3 sec) 
Heartbeat CPU 0 instructions: 74000001 cycles: 687457450 heartbeat IPC: 0.0958657 cumulative IPC: 0.0937997 (Simulation time: 1 hr 4 min 23 sec) 
Heartbeat CPU 0 instructions: 75000002 cycles: 698122903 heartbeat IPC: 0.0937608 cumulative IPC: 0.0937991 (Simulation time: 1 hr 4 min 40 sec) 
Heartbeat CPU 0 instructions: 76000000 cycles: 708317639 heartbeat IPC: 0.0980896 cumulative IPC: 0.0938613 (Simulation time: 1 hr 4 min 53 sec) 
Heartbeat CPU 0 instructions: 77000003 cycles: 723570373 heartbeat IPC: 0.0655622 cumulative IPC: 0.0932605 (Simulation time: 1 hr 5 min 7 sec) 
Heartbeat CPU 0 instructions: 78000000 cycles: 734687241 heartbeat IPC: 0.0899531 cumulative IPC: 0.0932101 (Simulation time: 1 hr 5 min 18 sec) 
Heartbeat CPU 0 instructions: 79000000 cycles: 744874078 heartbeat IPC: 0.0981659 cumulative IPC: 0.0932784 (Simulation time: 1 hr 5 min 27 sec) 
Heartbeat CPU 0 instructions: 80000000 cycles: 755252262 heartbeat IPC: 0.096356 cumulative IPC: 0.093321 (Simulation time: 1 hr 5 min 36 sec) 
Heartbeat CPU 0 instructions: 81000001 cycles: 765497719 heartbeat IPC: 0.0976043 cumulative IPC: 0.0933787 (Simulation time: 1 hr 5 min 45 sec) 
Heartbeat CPU 0 instructions: 82000001 cycles: 774750190 heartbeat IPC: 0.108079 cumulative IPC: 0.0935554 (Simulation time: 1 hr 5 min 52 sec) 
Heartbeat CPU 0 instructions: 83000002 cycles: 783152593 heartbeat IPC: 0.119014 cumulative IPC: 0.0938304 (Simulation time: 1 hr 5 min 58 sec) 
Heartbeat CPU 0 instructions: 84000000 cycles: 791309138 heartbeat IPC: 0.122601 cumulative IPC: 0.0941289 (Simulation time: 1 hr 6 min 5 sec) 
Heartbeat CPU 0 instructions: 85000000 cycles: 800283260 heartbeat IPC: 0.111432 cumulative IPC: 0.0943241 (Simulation time: 1 hr 6 min 11 sec) 
Heartbeat CPU 0 instructions: 86000001 cycles: 808875046 heartbeat IPC: 0.11639 cumulative IPC: 0.09456 (Simulation time: 1 hr 6 min 17 sec) 
Heartbeat CPU 0 instructions: 87000001 cycles: 823359436 heartbeat IPC: 0.0690398 cumulative IPC: 0.0941083 (Simulation time: 1 hr 6 min 25 sec) 
Heartbeat CPU 0 instructions: 88000000 cycles: 834112267 heartbeat IPC: 0.0929987 cumulative IPC: 0.0940939 (Simulation time: 1 hr 6 min 32 sec) 
Heartbeat CPU 0 instructions: 89000001 cycles: 843538754 heartbeat IPC: 0.106084 cumulative IPC: 0.0942287 (Simulation time: 1 hr 6 min 39 sec) 
Heartbeat CPU 0 instructions: 90000001 cycles: 851551884 heartbeat IPC: 0.124795 cumulative IPC: 0.0945181 (Simulation time: 1 hr 6 min 44 sec) 
Heartbeat CPU 0 instructions: 91000000 cycles: 862885945 heartbeat IPC: 0.0882295 cumulative IPC: 0.094435 (Simulation time: 1 hr 6 min 51 sec) 
Heartbeat CPU 0 instructions: 92000000 cycles: 871512881 heartbeat IPC: 0.115916 cumulative IPC: 0.0946489 (Simulation time: 1 hr 6 min 57 sec) 
Heartbeat CPU 0 instructions: 93000000 cycles: 881951655 heartbeat IPC: 0.0957967 cumulative IPC: 0.0946625 (Simulation time: 1 hr 7 min 4 sec) 
Heartbeat CPU 0 instructions: 94000000 cycles: 893124454 heartbeat IPC: 0.0895031 cumulative IPC: 0.0945976 (Simulation time: 1 hr 7 min 11 sec) 
Heartbeat CPU 0 instructions: 95000000 cycles: 903905325 heartbeat IPC: 0.0927569 cumulative IPC: 0.0945755 (Simulation time: 1 hr 7 min 17 sec) 
Heartbeat CPU 0 instructions: 96000000 cycles: 914663759 heartbeat IPC: 0.0929503 cumulative IPC: 0.0945563 (Simulation time: 1 hr 7 min 25 sec) 
Heartbeat CPU 0 instructions: 97000000 cycles: 925027314 heartbeat IPC: 0.096492 cumulative IPC: 0.0945781 (Simulation time: 1 hr 7 min 32 sec) 
Heartbeat CPU 0 instructions: 98000000 cycles: 935405729 heartbeat IPC: 0.0963538 cumulative IPC: 0.0945979 (Simulation time: 1 hr 7 min 39 sec) 
Heartbeat CPU 0 instructions: 99000000 cycles: 945796543 heartbeat IPC: 0.0962389 cumulative IPC: 0.0946161 (Simulation time: 1 hr 7 min 45 sec) 
Heartbeat CPU 0 instructions: 100000000 cycles: 956148708 heartbeat IPC: 0.0965981 cumulative IPC: 0.0946376 (Simulation time: 1 hr 7 min 52 sec) 
Heartbeat CPU 0 instructions: 101000002 cycles: 967284789 heartbeat IPC: 0.0897984 cumulative IPC: 0.0945816 (Simulation time: 1 hr 7 min 59 sec) 
Heartbeat CPU 0 instructions: 102000002 cycles: 978150201 heartbeat IPC: 0.0920352 cumulative IPC: 0.0945532 (Simulation time: 1 hr 8 min 6 sec) 
Heartbeat CPU 0 instructions: 103000000 cycles: 988931843 heartbeat IPC: 0.0927501 cumulative IPC: 0.0945334 (Simulation time: 1 hr 8 min 12 sec) 
Heartbeat CPU 0 instructions: 104000000 cycles: 999920581 heartbeat IPC: 0.0910023 cumulative IPC: 0.0944944 (Simulation time: 1 hr 8 min 19 sec) 
Heartbeat CPU 0 instructions: 105000000 cycles: 1010382135 heartbeat IPC: 0.0955881 cumulative IPC: 0.0945058 (Simulation time: 1 hr 8 min 25 sec) 
Heartbeat CPU 0 instructions: 106000002 cycles: 1021371956 heartbeat IPC: 0.0909935 cumulative IPC: 0.0944678 (Simulation time: 1 hr 8 min 32 sec) 
Heartbeat CPU 0 instructions: 107000003 cycles: 1032442509 heartbeat IPC: 0.0903298 cumulative IPC: 0.0944232 (Simulation time: 1 hr 8 min 39 sec) 
Heartbeat CPU 0 instructions: 108000000 cycles: 1043036471 heartbeat IPC: 0.0943931 cumulative IPC: 0.0944229 (Simulation time: 1 hr 8 min 45 sec) 
Heartbeat CPU 0 instructions: 109000000 cycles: 1053596452 heartbeat IPC: 0.0946971 cumulative IPC: 0.0944257 (Simulation time: 1 hr 8 min 52 sec) 
Heartbeat CPU 0 instructions: 110000000 cycles: 1063903645 heartbeat IPC: 0.0970196 cumulative IPC: 0.0944509 (Simulation time: 1 hr 8 min 58 sec) 
Finished CPU 0 instructions: 100000000 cycles: 1058750807 cummulative IPC: 0.0944509 (Simulation time: 1 hr 8 min 58 sec) 

ChampSim completed all CPUs

Region of Interest Statistics

CPU 0 cummulative IPC: 0.0944509 instructions: 100000000 cycles: 1058750807
LLC TOTAL     ACCESS:   26976114  HIT:    9453615  MISS:   17522499
LLC LOAD      ACCESS:   11728406  HIT:    7507998  MISS:    4220408
LLC RFO       ACCESS:      27366  HIT:       7377  MISS:      19989
LLC PREFETCH  ACCESS:   14886567  HIT:    1768912  MISS:   13117655
LLC WRITEBACK ACCESS:     333775  HIT:     169328  MISS:     164447
Insertion Distribution: 
	LOAD 257055 0 1041789 3360450 
	RFO 12858 0 8997 3404 
	PREF 0 624826 3079321 10648696 
	WRITEBACK 0 0 0 218409 
Total Prefetch Downgrades: 1531355
