
*** ChampSim Multicore Out-of-Order Simulator ***

Warmup Instructions: 10000000
Simulation Instructions: 100000000
Configuration: 2
Number of CPUs: 1
LLC sets: 2048
LLC ways: 16
Off-chip DRAM Channels: 1 Width: 64-bit Data Rate: 1600 MT/s

CPU 0 runs /datasets/cs240c-wi22-a00-public/data/Assignment2-gz/libquantum_964B.trace.gz
CPU 0 L1D next line prefetcher
CPU 0 L2C IP-based stride prefetcher
Initialize SRRIP state
Heartbeat CPU 0 instructions: 1000002 cycles: 333341 heartbeat IPC: 2.99994 cumulative IPC: 2.99994 (Simulation time: 0 hr 0 min 22 sec) 
Heartbeat CPU 0 instructions: 2000001 cycles: 666674 heartbeat IPC: 3 cumulative IPC: 2.99997 (Simulation time: 0 hr 0 min 41 sec) 
Heartbeat CPU 0 instructions: 3000000 cycles: 1000007 heartbeat IPC: 3 cumulative IPC: 2.99998 (Simulation time: 0 hr 1 min 0 sec) 
Heartbeat CPU 0 instructions: 4000000 cycles: 1333341 heartbeat IPC: 2.99999 cumulative IPC: 2.99998 (Simulation time: 0 hr 1 min 20 sec) 
Heartbeat CPU 0 instructions: 5000000 cycles: 1666674 heartbeat IPC: 3 cumulative IPC: 2.99999 (Simulation time: 0 hr 1 min 37 sec) 
Heartbeat CPU 0 instructions: 6000002 cycles: 2000008 heartbeat IPC: 3 cumulative IPC: 2.99999 (Simulation time: 0 hr 1 min 54 sec) 
Heartbeat CPU 0 instructions: 7000001 cycles: 2331518 heartbeat IPC: 3.0165 cumulative IPC: 3.00234 (Simulation time: 0 hr 2 min 13 sec) 
Heartbeat CPU 0 instructions: 8000000 cycles: 2662240 heartbeat IPC: 3.02368 cumulative IPC: 3.00499 (Simulation time: 0 hr 2 min 30 sec) 
Heartbeat CPU 0 instructions: 9000001 cycles: 2992962 heartbeat IPC: 3.02369 cumulative IPC: 3.00705 (Simulation time: 0 hr 2 min 48 sec) 
Heartbeat CPU 0 instructions: 10000001 cycles: 3323684 heartbeat IPC: 3.02369 cumulative IPC: 3.00871 (Simulation time: 0 hr 3 min 5 sec) 

Warmup complete CPU 0 instructions: 10000001 cycles: 3323684 (Simulation time: 0 hr 3 min 5 sec) 

Heartbeat CPU 0 instructions: 11000000 cycles: 5060059 heartbeat IPC: 0.575912 cumulative IPC: 0.575912 (Simulation time: 0 hr 3 min 35 sec) 
Heartbeat CPU 0 instructions: 12000000 cycles: 6808477 heartbeat IPC: 0.571946 cumulative IPC: 0.573922 (Simulation time: 0 hr 4 min 8 sec) 
Heartbeat CPU 0 instructions: 13000001 cycles: 8552271 heartbeat IPC: 0.573463 cumulative IPC: 0.573769 (Simulation time: 0 hr 4 min 38 sec) 
Heartbeat CPU 0 instructions: 14000000 cycles: 10294197 heartbeat IPC: 0.574077 cumulative IPC: 0.573846 (Simulation time: 0 hr 5 min 6 sec) 
Heartbeat CPU 0 instructions: 15000003 cycles: 12041297 heartbeat IPC: 0.572379 cumulative IPC: 0.573552 (Simulation time: 0 hr 5 min 36 sec) 
Heartbeat CPU 0 instructions: 16000000 cycles: 13781303 heartbeat IPC: 0.574709 cumulative IPC: 0.573744 (Simulation time: 0 hr 6 min 6 sec) 
Heartbeat CPU 0 instructions: 17000000 cycles: 15531627 heartbeat IPC: 0.571323 cumulative IPC: 0.573397 (Simulation time: 0 hr 6 min 39 sec) 
Heartbeat CPU 0 instructions: 18000003 cycles: 17268988 heartbeat IPC: 0.575587 cumulative IPC: 0.57367 (Simulation time: 0 hr 7 min 14 sec) 
Heartbeat CPU 0 instructions: 19000002 cycles: 19000314 heartbeat IPC: 0.577591 cumulative IPC: 0.574103 (Simulation time: 0 hr 7 min 43 sec) 
Heartbeat CPU 0 instructions: 20000000 cycles: 20475009 heartbeat IPC: 0.678105 cumulative IPC: 0.583045 (Simulation time: 0 hr 8 min 10 sec) 
Heartbeat CPU 0 instructions: 21000003 cycles: 22221307 heartbeat IPC: 0.572642 cumulative IPC: 0.582084 (Simulation time: 0 hr 8 min 38 sec) 
Heartbeat CPU 0 instructions: 22000002 cycles: 23964966 heartbeat IPC: 0.573506 cumulative IPC: 0.581359 (Simulation time: 0 hr 9 min 6 sec) 
Heartbeat CPU 0 instructions: 23000000 cycles: 25706489 heartbeat IPC: 0.574209 cumulative IPC: 0.580803 (Simulation time: 0 hr 9 min 36 sec) 
Heartbeat CPU 0 instructions: 24000000 cycles: 27459792 heartbeat IPC: 0.570352 cumulative IPC: 0.580044 (Simulation time: 0 hr 10 min 4 sec) 
Heartbeat CPU 0 instructions: 25000000 cycles: 29201184 heartbeat IPC: 0.574253 cumulative IPC: 0.579654 (Simulation time: 0 hr 10 min 32 sec) 
Heartbeat CPU 0 instructions: 26000002 cycles: 31240592 heartbeat IPC: 0.490339 cumulative IPC: 0.573129 (Simulation time: 0 hr 11 min 5 sec) 
Heartbeat CPU 0 instructions: 27000002 cycles: 33602364 heartbeat IPC: 0.423411 cumulative IPC: 0.561451 (Simulation time: 0 hr 11 min 43 sec) 
Heartbeat CPU 0 instructions: 28000000 cycles: 35958721 heartbeat IPC: 0.424383 cumulative IPC: 0.551554 (Simulation time: 0 hr 12 min 20 sec) 
Heartbeat CPU 0 instructions: 29000002 cycles: 38325755 heartbeat IPC: 0.42247 cumulative IPC: 0.542825 (Simulation time: 0 hr 12 min 58 sec) 
Heartbeat CPU 0 instructions: 30000002 cycles: 40691567 heartbeat IPC: 0.422688 cumulative IPC: 0.535219 (Simulation time: 0 hr 13 min 36 sec) 
Heartbeat CPU 0 instructions: 31000002 cycles: 43055038 heartbeat IPC: 0.423107 cumulative IPC: 0.52855 (Simulation time: 0 hr 14 min 18 sec) 
Heartbeat CPU 0 instructions: 32000000 cycles: 45408268 heartbeat IPC: 0.424947 cumulative IPC: 0.522757 (Simulation time: 0 hr 14 min 55 sec) 
Heartbeat CPU 0 instructions: 33000002 cycles: 47595235 heartbeat IPC: 0.457255 cumulative IPC: 0.519521 (Simulation time: 0 hr 15 min 31 sec) 
Heartbeat CPU 0 instructions: 34000002 cycles: 49953803 heartbeat IPC: 0.423986 cumulative IPC: 0.514689 (Simulation time: 0 hr 16 min 8 sec) 
Heartbeat CPU 0 instructions: 35000002 cycles: 52313825 heartbeat IPC: 0.423725 cumulative IPC: 0.510307 (Simulation time: 0 hr 16 min 42 sec) 
Heartbeat CPU 0 instructions: 36000000 cycles: 54443499 heartbeat IPC: 0.469554 cumulative IPC: 0.508609 (Simulation time: 0 hr 17 min 16 sec) 
Heartbeat CPU 0 instructions: 37000001 cycles: 56120831 heartbeat IPC: 0.596186 cumulative IPC: 0.511391 (Simulation time: 0 hr 17 min 47 sec) 
Heartbeat CPU 0 instructions: 38000000 cycles: 57586919 heartbeat IPC: 0.682087 cumulative IPC: 0.516003 (Simulation time: 0 hr 18 min 17 sec) 
Heartbeat CPU 0 instructions: 39000003 cycles: 59053085 heartbeat IPC: 0.682053 cumulative IPC: 0.520372 (Simulation time: 0 hr 18 min 50 sec) 
Heartbeat CPU 0 instructions: 40000000 cycles: 60519167 heartbeat IPC: 0.682088 cumulative IPC: 0.524517 (Simulation time: 0 hr 19 min 20 sec) 
Heartbeat CPU 0 instructions: 41000001 cycles: 61985387 heartbeat IPC: 0.682027 cumulative IPC: 0.528454 (Simulation time: 0 hr 19 min 48 sec) 
Heartbeat CPU 0 instructions: 42000000 cycles: 63451477 heartbeat IPC: 0.682086 cumulative IPC: 0.5322 (Simulation time: 0 hr 20 min 18 sec) 
Heartbeat CPU 0 instructions: 43000001 cycles: 64917640 heartbeat IPC: 0.682053 cumulative IPC: 0.535767 (Simulation time: 0 hr 20 min 49 sec) 
Heartbeat CPU 0 instructions: 44000000 cycles: 66383723 heartbeat IPC: 0.682089 cumulative IPC: 0.539169 (Simulation time: 0 hr 21 min 27 sec) 
Heartbeat CPU 0 instructions: 45000002 cycles: 67849830 heartbeat IPC: 0.68208 cumulative IPC: 0.542416 (Simulation time: 0 hr 22 min 0 sec) 
Heartbeat CPU 0 instructions: 46000001 cycles: 69316011 heartbeat IPC: 0.682043 cumulative IPC: 0.545518 (Simulation time: 0 hr 22 min 33 sec) 
Heartbeat CPU 0 instructions: 47000000 cycles: 70782101 heartbeat IPC: 0.682086 cumulative IPC: 0.548486 (Simulation time: 0 hr 23 min 3 sec) 
Heartbeat CPU 0 instructions: 48000000 cycles: 72248265 heartbeat IPC: 0.682052 cumulative IPC: 0.551327 (Simulation time: 0 hr 23 min 39 sec) 
Heartbeat CPU 0 instructions: 49000002 cycles: 73714818 heartbeat IPC: 0.681872 cumulative IPC: 0.554047 (Simulation time: 0 hr 24 min 11 sec) 
Heartbeat CPU 0 instructions: 50000001 cycles: 75181312 heartbeat IPC: 0.681898 cumulative IPC: 0.556656 (Simulation time: 0 hr 24 min 42 sec) 
Heartbeat CPU 0 instructions: 51000000 cycles: 76647402 heartbeat IPC: 0.682086 cumulative IPC: 0.559164 (Simulation time: 0 hr 25 min 15 sec) 
Heartbeat CPU 0 instructions: 52000000 cycles: 78113667 heartbeat IPC: 0.682005 cumulative IPC: 0.561572 (Simulation time: 0 hr 25 min 48 sec) 
Heartbeat CPU 0 instructions: 53000000 cycles: 79579873 heartbeat IPC: 0.682032 cumulative IPC: 0.563889 (Simulation time: 0 hr 26 min 19 sec) 
Heartbeat CPU 0 instructions: 54000002 cycles: 81045959 heartbeat IPC: 0.68209 cumulative IPC: 0.566118 (Simulation time: 0 hr 26 min 49 sec) 
Heartbeat CPU 0 instructions: 55000002 cycles: 82514609 heartbeat IPC: 0.680897 cumulative IPC: 0.568247 (Simulation time: 0 hr 27 min 17 sec) 
Heartbeat CPU 0 instructions: 56000000 cycles: 84153061 heartbeat IPC: 0.610331 cumulative IPC: 0.5691 (Simulation time: 0 hr 27 min 45 sec) 
Heartbeat CPU 0 instructions: 57000001 cycles: 85905323 heartbeat IPC: 0.570691 cumulative IPC: 0.569134 (Simulation time: 0 hr 28 min 13 sec) 
Heartbeat CPU 0 instructions: 58000000 cycles: 87654791 heartbeat IPC: 0.571602 cumulative IPC: 0.569185 (Simulation time: 0 hr 28 min 42 sec) 
Heartbeat CPU 0 instructions: 59000003 cycles: 89405631 heartbeat IPC: 0.571156 cumulative IPC: 0.569225 (Simulation time: 0 hr 29 min 10 sec) 
Heartbeat CPU 0 instructions: 60000000 cycles: 91153051 heartbeat IPC: 0.572271 cumulative IPC: 0.569286 (Simulation time: 0 hr 29 min 38 sec) 
Heartbeat CPU 0 instructions: 61000002 cycles: 92903065 heartbeat IPC: 0.571425 cumulative IPC: 0.569327 (Simulation time: 0 hr 30 min 6 sec) 
Heartbeat CPU 0 instructions: 62000001 cycles: 94656174 heartbeat IPC: 0.570415 cumulative IPC: 0.569348 (Simulation time: 0 hr 30 min 34 sec) 
Heartbeat CPU 0 instructions: 63000001 cycles: 96404107 heartbeat IPC: 0.572104 cumulative IPC: 0.5694 (Simulation time: 0 hr 31 min 2 sec) 
Heartbeat CPU 0 instructions: 64000000 cycles: 98159243 heartbeat IPC: 0.569756 cumulative IPC: 0.569407 (Simulation time: 0 hr 31 min 30 sec) 
Heartbeat CPU 0 instructions: 65000002 cycles: 99911128 heartbeat IPC: 0.570815 cumulative IPC: 0.569432 (Simulation time: 0 hr 31 min 58 sec) 
Heartbeat CPU 0 instructions: 66000002 cycles: 101658440 heartbeat IPC: 0.572308 cumulative IPC: 0.569483 (Simulation time: 0 hr 32 min 25 sec) 
Heartbeat CPU 0 instructions: 67000000 cycles: 103408368 heartbeat IPC: 0.571451 cumulative IPC: 0.569518 (Simulation time: 0 hr 32 min 54 sec) 
Heartbeat CPU 0 instructions: 68000000 cycles: 105157688 heartbeat IPC: 0.571651 cumulative IPC: 0.569554 (Simulation time: 0 hr 33 min 24 sec) 
Heartbeat CPU 0 instructions: 69000000 cycles: 106909020 heartbeat IPC: 0.570994 cumulative IPC: 0.569579 (Simulation time: 0 hr 33 min 51 sec) 
Heartbeat CPU 0 instructions: 70000002 cycles: 108659137 heartbeat IPC: 0.571392 cumulative IPC: 0.569609 (Simulation time: 0 hr 34 min 20 sec) 
Heartbeat CPU 0 instructions: 71000001 cycles: 110411294 heartbeat IPC: 0.570725 cumulative IPC: 0.569627 (Simulation time: 0 hr 34 min 46 sec) 
Heartbeat CPU 0 instructions: 72000000 cycles: 112162213 heartbeat IPC: 0.571128 cumulative IPC: 0.569651 (Simulation time: 0 hr 35 min 14 sec) 
Heartbeat CPU 0 instructions: 73000000 cycles: 113909776 heartbeat IPC: 0.572225 cumulative IPC: 0.569692 (Simulation time: 0 hr 35 min 45 sec) 
Heartbeat CPU 0 instructions: 74000000 cycles: 115687996 heartbeat IPC: 0.56236 cumulative IPC: 0.569576 (Simulation time: 0 hr 36 min 17 sec) 
Heartbeat CPU 0 instructions: 75000000 cycles: 117960706 heartbeat IPC: 0.440003 cumulative IPC: 0.567007 (Simulation time: 0 hr 36 min 56 sec) 
Heartbeat CPU 0 instructions: 76000000 cycles: 120301686 heartbeat IPC: 0.427172 cumulative IPC: 0.564209 (Simulation time: 0 hr 37 min 40 sec) 
Heartbeat CPU 0 instructions: 77000000 cycles: 122638347 heartbeat IPC: 0.427961 cumulative IPC: 0.56154 (Simulation time: 0 hr 38 min 17 sec) 
Heartbeat CPU 0 instructions: 78000000 cycles: 125001145 heartbeat IPC: 0.423227 cumulative IPC: 0.558855 (Simulation time: 0 hr 38 min 55 sec) 
Heartbeat CPU 0 instructions: 79000000 cycles: 127331721 heartbeat IPC: 0.429078 cumulative IPC: 0.556416 (Simulation time: 0 hr 39 min 31 sec) 
Heartbeat CPU 0 instructions: 80000000 cycles: 129679567 heartbeat IPC: 0.425922 cumulative IPC: 0.553991 (Simulation time: 0 hr 40 min 5 sec) 
Heartbeat CPU 0 instructions: 81000000 cycles: 132005915 heartbeat IPC: 0.429858 cumulative IPC: 0.551747 (Simulation time: 0 hr 40 min 40 sec) 
Heartbeat CPU 0 instructions: 82000000 cycles: 134339348 heartbeat IPC: 0.428553 cumulative IPC: 0.549553 (Simulation time: 0 hr 41 min 17 sec) 
Heartbeat CPU 0 instructions: 83000000 cycles: 136685919 heartbeat IPC: 0.426154 cumulative IPC: 0.547381 (Simulation time: 0 hr 41 min 55 sec) 
Heartbeat CPU 0 instructions: 84000000 cycles: 139037539 heartbeat IPC: 0.425239 cumulative IPC: 0.545265 (Simulation time: 0 hr 42 min 32 sec) 
Heartbeat CPU 0 instructions: 85000001 cycles: 140774081 heartbeat IPC: 0.575858 cumulative IPC: 0.545651 (Simulation time: 0 hr 43 min 6 sec) 
Heartbeat CPU 0 instructions: 86000000 cycles: 142284359 heartbeat IPC: 0.662129 cumulative IPC: 0.546917 (Simulation time: 0 hr 43 min 40 sec) 
Heartbeat CPU 0 instructions: 87000003 cycles: 143794287 heartbeat IPC: 0.662285 cumulative IPC: 0.548157 (Simulation time: 0 hr 44 min 16 sec) 
Heartbeat CPU 0 instructions: 88000000 cycles: 145304279 heartbeat IPC: 0.662253 cumulative IPC: 0.549371 (Simulation time: 0 hr 44 min 51 sec) 
Heartbeat CPU 0 instructions: 89000001 cycles: 146814326 heartbeat IPC: 0.662232 cumulative IPC: 0.550559 (Simulation time: 0 hr 45 min 24 sec) 
Heartbeat CPU 0 instructions: 90000000 cycles: 148324446 heartbeat IPC: 0.662198 cumulative IPC: 0.551721 (Simulation time: 0 hr 45 min 54 sec) 
Heartbeat CPU 0 instructions: 91000001 cycles: 149834369 heartbeat IPC: 0.662286 cumulative IPC: 0.552861 (Simulation time: 0 hr 46 min 26 sec) 
Heartbeat CPU 0 instructions: 92000000 cycles: 151344477 heartbeat IPC: 0.662204 cumulative IPC: 0.553976 (Simulation time: 0 hr 46 min 59 sec) 
Heartbeat CPU 0 instructions: 93000002 cycles: 152854631 heartbeat IPC: 0.662185 cumulative IPC: 0.555069 (Simulation time: 0 hr 47 min 32 sec) 
Heartbeat CPU 0 instructions: 94000001 cycles: 154364551 heartbeat IPC: 0.662286 cumulative IPC: 0.556141 (Simulation time: 0 hr 48 min 3 sec) 
Heartbeat CPU 0 instructions: 95000000 cycles: 155874475 heartbeat IPC: 0.662284 cumulative IPC: 0.557191 (Simulation time: 0 hr 48 min 34 sec) 
Heartbeat CPU 0 instructions: 96000000 cycles: 157384469 heartbeat IPC: 0.662254 cumulative IPC: 0.558221 (Simulation time: 0 hr 49 min 4 sec) 
Heartbeat CPU 0 instructions: 97000002 cycles: 158892013 heartbeat IPC: 0.663332 cumulative IPC: 0.55924 (Simulation time: 0 hr 49 min 38 sec) 
Heartbeat CPU 0 instructions: 98000001 cycles: 160391160 heartbeat IPC: 0.667045 cumulative IPC: 0.560269 (Simulation time: 0 hr 50 min 14 sec) 
Heartbeat CPU 0 instructions: 99000000 cycles: 161901154 heartbeat IPC: 0.662254 cumulative IPC: 0.56124 (Simulation time: 0 hr 50 min 44 sec) 
Heartbeat CPU 0 instructions: 100000000 cycles: 163411075 heartbeat IPC: 0.662286 cumulative IPC: 0.562193 (Simulation time: 0 hr 51 min 15 sec) 
Heartbeat CPU 0 instructions: 101000000 cycles: 164921120 heartbeat IPC: 0.662232 cumulative IPC: 0.563128 (Simulation time: 0 hr 51 min 46 sec) 
Heartbeat CPU 0 instructions: 102000002 cycles: 166431043 heartbeat IPC: 0.662287 cumulative IPC: 0.564046 (Simulation time: 0 hr 52 min 15 sec) 
Heartbeat CPU 0 instructions: 103000001 cycles: 167941015 heartbeat IPC: 0.662263 cumulative IPC: 0.564947 (Simulation time: 0 hr 52 min 42 sec) 
Heartbeat CPU 0 instructions: 104000000 cycles: 170002688 heartbeat IPC: 0.485042 cumulative IPC: 0.563958 (Simulation time: 0 hr 53 min 15 sec) 
Heartbeat CPU 0 instructions: 105000000 cycles: 172347418 heartbeat IPC: 0.426488 cumulative IPC: 0.562051 (Simulation time: 0 hr 53 min 51 sec) 
Heartbeat CPU 0 instructions: 106000000 cycles: 174700114 heartbeat IPC: 0.425044 cumulative IPC: 0.56017 (Simulation time: 0 hr 54 min 25 sec) 
Heartbeat CPU 0 instructions: 107000000 cycles: 177057087 heartbeat IPC: 0.424273 cumulative IPC: 0.558327 (Simulation time: 0 hr 54 min 55 sec) 
Heartbeat CPU 0 instructions: 108000000 cycles: 179416962 heartbeat IPC: 0.423751 cumulative IPC: 0.556523 (Simulation time: 0 hr 55 min 22 sec) 
Heartbeat CPU 0 instructions: 109000000 cycles: 181765193 heartbeat IPC: 0.425852 cumulative IPC: 0.554804 (Simulation time: 0 hr 55 min 48 sec) 
Heartbeat CPU 0 instructions: 110000000 cycles: 184097941 heartbeat IPC: 0.428679 cumulative IPC: 0.553176 (Simulation time: 0 hr 56 min 16 sec) 
Finished CPU 0 instructions: 100000003 cycles: 180774258 cummulative IPC: 0.553176 (Simulation time: 0 hr 56 min 16 sec) 

ChampSim completed all CPUs

Region of Interest Statistics

CPU 0 cummulative IPC: 0.553176 instructions: 100000003 cycles: 180774258
LLC TOTAL     ACCESS:    4917133  HIT:     141742  MISS:    4775391
LLC LOAD      ACCESS:    1161141  HIT:      26116  MISS:    1135025
LLC RFO       ACCESS:         24  HIT:         23  MISS:          1
LLC PREFETCH  ACCESS:    2229270  HIT:      44403  MISS:    2184867
LLC WRITEBACK ACCESS:    1526698  HIT:      71200  MISS:    1455498
Insertion Distribution: 
	LOAD 7498 0 9661 1122214 
	RFO 0 0 5 0 
	PREF 0 3660 33344 2420513 
	WRITEBACK 0 0 0 1468561 
Total Prefetch Downgrades: 13162
