
*** ChampSim Multicore Out-of-Order Simulator ***

Warmup Instructions: 10000000
Simulation Instructions: 100000000
Configuration: 2
Number of CPUs: 1
LLC sets: 2048
LLC ways: 16
Off-chip DRAM Channels: 1 Width: 64-bit Data Rate: 1600 MT/s

CPU 0 runs /datasets/cs240c-wi22-a00-public/data/Assignment2-gz/sphinx3_883B.trace.gz
CPU 0 L1D next line prefetcher
CPU 0 L2C IP-based stride prefetcher
config 2, num_core 1, llc_sets 2048
Heartbeat CPU 0 instructions: 1000003 cycles: 414381 heartbeat IPC: 2.41325 cumulative IPC: 2.41325 (Simulation time: 0 hr 2 min 46 sec) 
Heartbeat CPU 0 instructions: 2000000 cycles: 824026 heartbeat IPC: 2.44113 cumulative IPC: 2.42711 (Simulation time: 0 hr 5 min 41 sec) 
Heartbeat CPU 0 instructions: 3000003 cycles: 1298655 heartbeat IPC: 2.10691 cumulative IPC: 2.31008 (Simulation time: 0 hr 8 min 10 sec) 
Heartbeat CPU 0 instructions: 4000000 cycles: 1637546 heartbeat IPC: 2.95079 cumulative IPC: 2.44268 (Simulation time: 0 hr 10 min 32 sec) 
Heartbeat CPU 0 instructions: 5000000 cycles: 1992215 heartbeat IPC: 2.81953 cumulative IPC: 2.50977 (Simulation time: 0 hr 12 min 48 sec) 
Heartbeat CPU 0 instructions: 6000003 cycles: 2406746 heartbeat IPC: 2.41237 cumulative IPC: 2.49299 (Simulation time: 0 hr 15 min 13 sec) 
Heartbeat CPU 0 instructions: 7000002 cycles: 2815611 heartbeat IPC: 2.44579 cumulative IPC: 2.48614 (Simulation time: 0 hr 17 min 28 sec) 
Heartbeat CPU 0 instructions: 8000000 cycles: 3291307 heartbeat IPC: 2.10218 cumulative IPC: 2.43065 (Simulation time: 0 hr 19 min 41 sec) 
Heartbeat CPU 0 instructions: 9000001 cycles: 3630308 heartbeat IPC: 2.94985 cumulative IPC: 2.47913 (Simulation time: 0 hr 21 min 50 sec) 
Heartbeat CPU 0 instructions: 10000000 cycles: 3984390 heartbeat IPC: 2.8242 cumulative IPC: 2.50979 (Simulation time: 0 hr 24 min 4 sec) 

Warmup complete CPU 0 instructions: 10000004 cycles: 3984391 (Simulation time: 0 hr 24 min 4 sec) 

Heartbeat CPU 0 instructions: 11000002 cycles: 5659771 heartbeat IPC: 0.59688 cumulative IPC: 0.596878 (Simulation time: 0 hr 26 min 51 sec) 
Heartbeat CPU 0 instructions: 12000000 cycles: 7351011 heartbeat IPC: 0.591281 cumulative IPC: 0.594066 (Simulation time: 0 hr 29 min 30 sec) 
Heartbeat CPU 0 instructions: 13000001 cycles: 8605756 heartbeat IPC: 0.796975 cumulative IPC: 0.649158 (Simulation time: 0 hr 31 min 44 sec) 
Heartbeat CPU 0 instructions: 14000002 cycles: 9486475 heartbeat IPC: 1.13544 cumulative IPC: 0.726997 (Simulation time: 0 hr 34 min 1 sec) 
Heartbeat CPU 0 instructions: 15000000 cycles: 10452607 heartbeat IPC: 1.03505 cumulative IPC: 0.77301 (Simulation time: 0 hr 36 min 30 sec) 
Heartbeat CPU 0 instructions: 16000000 cycles: 12040517 heartbeat IPC: 0.629759 cumulative IPC: 0.744774 (Simulation time: 0 hr 39 min 14 sec) 
Heartbeat CPU 0 instructions: 17000000 cycles: 13689758 heartbeat IPC: 0.60634 cumulative IPC: 0.72125 (Simulation time: 0 hr 41 min 43 sec) 
Heartbeat CPU 0 instructions: 18000002 cycles: 14979471 heartbeat IPC: 0.775368 cumulative IPC: 0.727598 (Simulation time: 0 hr 44 min 18 sec) 
Heartbeat CPU 0 instructions: 19000003 cycles: 15866013 heartbeat IPC: 1.12798 cumulative IPC: 0.757472 (Simulation time: 0 hr 46 min 37 sec) 
Heartbeat CPU 0 instructions: 20000000 cycles: 16748995 heartbeat IPC: 1.13252 cumulative IPC: 0.783416 (Simulation time: 0 hr 48 min 57 sec) 
Heartbeat CPU 0 instructions: 21000000 cycles: 18203105 heartbeat IPC: 0.687706 cumulative IPC: 0.773628 (Simulation time: 0 hr 51 min 24 sec) 
Heartbeat CPU 0 instructions: 22000002 cycles: 19739253 heartbeat IPC: 0.65098 cumulative IPC: 0.76167 (Simulation time: 0 hr 54 min 1 sec) 
Heartbeat CPU 0 instructions: 23000001 cycles: 21227701 heartbeat IPC: 0.67184 cumulative IPC: 0.753915 (Simulation time: 0 hr 56 min 36 sec) 
Heartbeat CPU 0 instructions: 24000000 cycles: 22118830 heartbeat IPC: 1.12217 cumulative IPC: 0.772012 (Simulation time: 0 hr 58 min 48 sec) 
Heartbeat CPU 0 instructions: 25000003 cycles: 23002443 heartbeat IPC: 1.13172 cumulative IPC: 0.788724 (Simulation time: 1 hr 1 min 6 sec) 
Heartbeat CPU 0 instructions: 26000001 cycles: 24192128 heartbeat IPC: 0.840557 cumulative IPC: 0.791776 (Simulation time: 1 hr 3 min 34 sec) 
Heartbeat CPU 0 instructions: 27000000 cycles: 25671501 heartbeat IPC: 0.675961 cumulative IPC: 0.783876 (Simulation time: 1 hr 6 min 3 sec) 
Heartbeat CPU 0 instructions: 28000000 cycles: 27166645 heartbeat IPC: 0.668832 cumulative IPC: 0.776456 (Simulation time: 1 hr 8 min 26 sec) 
Heartbeat CPU 0 instructions: 29000000 cycles: 28159991 heartbeat IPC: 1.0067 cumulative IPC: 0.785916 (Simulation time: 1 hr 10 min 44 sec) 
Heartbeat CPU 0 instructions: 30000002 cycles: 29041237 heartbeat IPC: 1.13476 cumulative IPC: 0.798185 (Simulation time: 1 hr 13 min 8 sec) 
Heartbeat CPU 0 instructions: 31000003 cycles: 30117940 heartbeat IPC: 0.928762 cumulative IPC: 0.803565 (Simulation time: 1 hr 15 min 28 sec) 
Heartbeat CPU 0 instructions: 32000000 cycles: 31578257 heartbeat IPC: 0.684781 cumulative IPC: 0.797279 (Simulation time: 1 hr 18 min 2 sec) 
Heartbeat CPU 0 instructions: 33000000 cycles: 33017082 heartbeat IPC: 0.695012 cumulative IPC: 0.79221 (Simulation time: 1 hr 20 min 44 sec) 
Heartbeat CPU 0 instructions: 34000000 cycles: 34125538 heartbeat IPC: 0.902156 cumulative IPC: 0.796254 (Simulation time: 1 hr 23 min 6 sec) 
Heartbeat CPU 0 instructions: 35000003 cycles: 35004403 heartbeat IPC: 1.13783 cumulative IPC: 0.805931 (Simulation time: 1 hr 25 min 53 sec) 
Heartbeat CPU 0 instructions: 36000000 cycles: 36040578 heartbeat IPC: 0.965085 cumulative IPC: 0.811076 (Simulation time: 1 hr 28 min 36 sec) 
Heartbeat CPU 0 instructions: 37000001 cycles: 37507611 heartbeat IPC: 0.681649 cumulative IPC: 0.805412 (Simulation time: 1 hr 31 min 23 sec) 
Heartbeat CPU 0 instructions: 38000000 cycles: 38940590 heartbeat IPC: 0.697846 cumulative IPC: 0.801002 (Simulation time: 1 hr 34 min 13 sec) 
Heartbeat CPU 0 instructions: 39000003 cycles: 40026735 heartbeat IPC: 0.92069 cumulative IPC: 0.804609 (Simulation time: 1 hr 36 min 54 sec) 
Heartbeat CPU 0 instructions: 40000000 cycles: 40903770 heartbeat IPC: 1.1402 cumulative IPC: 0.812581 (Simulation time: 1 hr 39 min 38 sec) 
Heartbeat CPU 0 instructions: 41000003 cycles: 41927195 heartbeat IPC: 0.977114 cumulative IPC: 0.817019 (Simulation time: 1 hr 42 min 29 sec) 
Heartbeat CPU 0 instructions: 42000000 cycles: 43403962 heartbeat IPC: 0.677153 cumulative IPC: 0.811779 (Simulation time: 1 hr 45 min 19 sec) 
Heartbeat CPU 0 instructions: 43000003 cycles: 44864039 heartbeat IPC: 0.684897 cumulative IPC: 0.807248 (Simulation time: 1 hr 48 min 3 sec) 
Heartbeat CPU 0 instructions: 44000000 cycles: 45889859 heartbeat IPC: 0.974827 cumulative IPC: 0.81135 (Simulation time: 1 hr 50 min 37 sec) 
Heartbeat CPU 0 instructions: 45000002 cycles: 46770788 heartbeat IPC: 1.13517 cumulative IPC: 0.818017 (Simulation time: 1 hr 52 min 56 sec) 
Heartbeat CPU 0 instructions: 46000001 cycles: 47825258 heartbeat IPC: 0.948343 cumulative IPC: 0.821152 (Simulation time: 1 hr 55 min 36 sec) 
Heartbeat CPU 0 instructions: 47000002 cycles: 49284927 heartbeat IPC: 0.685088 cumulative IPC: 0.816767 (Simulation time: 1 hr 58 min 34 sec) 
Heartbeat CPU 0 instructions: 48000000 cycles: 50754988 heartbeat IPC: 0.680243 cumulative IPC: 0.812476 (Simulation time: 2 hr 1 min 29 sec) 
Heartbeat CPU 0 instructions: 49000001 cycles: 51701993 heartbeat IPC: 1.05596 cumulative IPC: 0.817308 (Simulation time: 2 hr 3 min 48 sec) 
Heartbeat CPU 0 instructions: 50000000 cycles: 52578035 heartbeat IPC: 1.1415 cumulative IPC: 0.823153 (Simulation time: 2 hr 6 min 12 sec) 
Heartbeat CPU 0 instructions: 51000003 cycles: 53663696 heartbeat IPC: 0.921101 cumulative IPC: 0.825293 (Simulation time: 2 hr 8 min 39 sec) 
Heartbeat CPU 0 instructions: 52000000 cycles: 55148241 heartbeat IPC: 0.673605 cumulative IPC: 0.820892 (Simulation time: 2 hr 11 min 4 sec) 
Heartbeat CPU 0 instructions: 53000000 cycles: 56842182 heartbeat IPC: 0.590339 cumulative IPC: 0.813503 (Simulation time: 2 hr 13 min 29 sec) 
Heartbeat CPU 0 instructions: 54000003 cycles: 58155832 heartbeat IPC: 0.76124 cumulative IPC: 0.812236 (Simulation time: 2 hr 16 min 1 sec) 
Heartbeat CPU 0 instructions: 55000003 cycles: 59038128 heartbeat IPC: 1.13341 cumulative IPC: 0.817383 (Simulation time: 2 hr 18 min 28 sec) 
Heartbeat CPU 0 instructions: 56000000 cycles: 59922003 heartbeat IPC: 1.13138 cumulative IPC: 0.822345 (Simulation time: 2 hr 21 min 8 sec) 
Heartbeat CPU 0 instructions: 57000002 cycles: 61028602 heartbeat IPC: 0.903672 cumulative IPC: 0.823922 (Simulation time: 2 hr 23 min 43 sec) 
Heartbeat CPU 0 instructions: 58000001 cycles: 62043506 heartbeat IPC: 0.985314 cumulative IPC: 0.826744 (Simulation time: 2 hr 25 min 55 sec) 
Heartbeat CPU 0 instructions: 59000003 cycles: 62911011 heartbeat IPC: 1.15273 cumulative IPC: 0.831543 (Simulation time: 2 hr 28 min 22 sec) 
Heartbeat CPU 0 instructions: 60000000 cycles: 63804682 heartbeat IPC: 1.11898 cumulative IPC: 0.835837 (Simulation time: 2 hr 31 min 2 sec) 
Heartbeat CPU 0 instructions: 61000001 cycles: 64944010 heartbeat IPC: 0.877711 cumulative IPC: 0.836619 (Simulation time: 2 hr 34 min 3 sec) 
Heartbeat CPU 0 instructions: 62000001 cycles: 65804611 heartbeat IPC: 1.16198 cumulative IPC: 0.841149 (Simulation time: 2 hr 36 min 47 sec) 
Heartbeat CPU 0 instructions: 63000000 cycles: 66654400 heartbeat IPC: 1.17676 cumulative IPC: 0.845699 (Simulation time: 2 hr 39 min 16 sec) 
Heartbeat CPU 0 instructions: 64000000 cycles: 67836971 heartbeat IPC: 0.845615 cumulative IPC: 0.845698 (Simulation time: 2 hr 42 min 4 sec) 
Heartbeat CPU 0 instructions: 65000003 cycles: 68691785 heartbeat IPC: 1.16985 cumulative IPC: 0.84998 (Simulation time: 2 hr 45 min 4 sec) 
Heartbeat CPU 0 instructions: 66000002 cycles: 69545330 heartbeat IPC: 1.17158 cumulative IPC: 0.854167 (Simulation time: 2 hr 47 min 36 sec) 
Heartbeat CPU 0 instructions: 67000000 cycles: 70708794 heartbeat IPC: 0.859501 cumulative IPC: 0.85426 (Simulation time: 2 hr 50 min 36 sec) 
Heartbeat CPU 0 instructions: 68000000 cycles: 72212014 heartbeat IPC: 0.665239 cumulative IPC: 0.850096 (Simulation time: 2 hr 53 min 40 sec) 
Heartbeat CPU 0 instructions: 69000003 cycles: 73067278 heartbeat IPC: 1.16923 cumulative IPC: 0.854047 (Simulation time: 2 hr 56 min 14 sec) 
Heartbeat CPU 0 instructions: 70000000 cycles: 73928647 heartbeat IPC: 1.16094 cumulative IPC: 0.857826 (Simulation time: 2 hr 58 min 53 sec) 
Heartbeat CPU 0 instructions: 71000000 cycles: 75035409 heartbeat IPC: 0.903537 cumulative IPC: 0.858538 (Simulation time: 3 hr 1 min 17 sec) 
Heartbeat CPU 0 instructions: 72000000 cycles: 76426891 heartbeat IPC: 0.718658 cumulative IPC: 0.855851 (Simulation time: 3 hr 3 min 59 sec) 
Heartbeat CPU 0 instructions: 73000000 cycles: 77278967 heartbeat IPC: 1.1736 cumulative IPC: 0.859545 (Simulation time: 3 hr 6 min 23 sec) 
Heartbeat CPU 0 instructions: 74000000 cycles: 78143352 heartbeat IPC: 1.15689 cumulative IPC: 0.863011 (Simulation time: 3 hr 8 min 53 sec) 
Heartbeat CPU 0 instructions: 75000000 cycles: 79291970 heartbeat IPC: 0.870611 cumulative IPC: 0.863127 (Simulation time: 3 hr 11 min 18 sec) 
Heartbeat CPU 0 instructions: 76000000 cycles: 80540702 heartbeat IPC: 0.800812 cumulative IPC: 0.86211 (Simulation time: 3 hr 14 min 10 sec) 
Heartbeat CPU 0 instructions: 77000003 cycles: 81408303 heartbeat IPC: 1.15261 cumulative IPC: 0.865366 (Simulation time: 3 hr 16 min 38 sec) 
Heartbeat CPU 0 instructions: 78000000 cycles: 82266295 heartbeat IPC: 1.16551 cumulative IPC: 0.868655 (Simulation time: 3 hr 19 min 29 sec) 
Heartbeat CPU 0 instructions: 79000001 cycles: 83546707 heartbeat IPC: 0.780999 cumulative IPC: 0.867245 (Simulation time: 3 hr 22 min 18 sec) 
Heartbeat CPU 0 instructions: 80000000 cycles: 84671375 heartbeat IPC: 0.88915 cumulative IPC: 0.86755 (Simulation time: 3 hr 25 min 10 sec) 
Heartbeat CPU 0 instructions: 81000000 cycles: 85543352 heartbeat IPC: 1.14682 cumulative IPC: 0.870536 (Simulation time: 3 hr 27 min 33 sec) 
Heartbeat CPU 0 instructions: 82000000 cycles: 86386613 heartbeat IPC: 1.18587 cumulative IPC: 0.873763 (Simulation time: 3 hr 30 min 10 sec) 
Heartbeat CPU 0 instructions: 83000000 cycles: 87768607 heartbeat IPC: 0.723592 cumulative IPC: 0.871286 (Simulation time: 3 hr 32 min 55 sec) 
Heartbeat CPU 0 instructions: 84000000 cycles: 88671311 heartbeat IPC: 1.10778 cumulative IPC: 0.873807 (Simulation time: 3 hr 35 min 32 sec) 
Heartbeat CPU 0 instructions: 85000001 cycles: 89523891 heartbeat IPC: 1.17291 cumulative IPC: 0.876788 (Simulation time: 3 hr 38 min 2 sec) 
Heartbeat CPU 0 instructions: 86000001 cycles: 90547977 heartbeat IPC: 0.97648 cumulative IPC: 0.877967 (Simulation time: 3 hr 40 min 38 sec) 
Heartbeat CPU 0 instructions: 87000000 cycles: 91716080 heartbeat IPC: 0.856088 cumulative IPC: 0.877676 (Simulation time: 3 hr 43 min 16 sec) 
Heartbeat CPU 0 instructions: 88000000 cycles: 92579585 heartbeat IPC: 1.15807 cumulative IPC: 0.880409 (Simulation time: 3 hr 45 min 53 sec) 
Heartbeat CPU 0 instructions: 89000000 cycles: 93414041 heartbeat IPC: 1.19839 cumulative IPC: 0.883376 (Simulation time: 3 hr 48 min 9 sec) 
Heartbeat CPU 0 instructions: 90000000 cycles: 94692349 heartbeat IPC: 0.782284 cumulative IPC: 0.881951 (Simulation time: 3 hr 50 min 52 sec) 
Heartbeat CPU 0 instructions: 91000003 cycles: 95932062 heartbeat IPC: 0.806641 cumulative IPC: 0.880936 (Simulation time: 3 hr 53 min 21 sec) 
Heartbeat CPU 0 instructions: 92000000 cycles: 96887347 heartbeat IPC: 1.0468 cumulative IPC: 0.882641 (Simulation time: 3 hr 56 min 3 sec) 
Heartbeat CPU 0 instructions: 93000000 cycles: 97727549 heartbeat IPC: 1.19019 cumulative IPC: 0.885398 (Simulation time: 3 hr 58 min 30 sec) 
Heartbeat CPU 0 instructions: 94000002 cycles: 98558772 heartbeat IPC: 1.20305 cumulative IPC: 0.88819 (Simulation time: 4 hr 0 min 48 sec) 
Heartbeat CPU 0 instructions: 95000001 cycles: 99892811 heartbeat IPC: 0.749602 cumulative IPC: 0.886262 (Simulation time: 4 hr 3 min 4 sec) 
Heartbeat CPU 0 instructions: 96000000 cycles: 100748743 heartbeat IPC: 1.16832 cumulative IPC: 0.888757 (Simulation time: 4 hr 5 min 20 sec) 
Heartbeat CPU 0 instructions: 97000002 cycles: 101602931 heartbeat IPC: 1.1707 cumulative IPC: 0.891224 (Simulation time: 4 hr 7 min 28 sec) 
Heartbeat CPU 0 instructions: 98000003 cycles: 102757006 heartbeat IPC: 0.866496 cumulative IPC: 0.890935 (Simulation time: 4 hr 9 min 31 sec) 
Heartbeat CPU 0 instructions: 99000000 cycles: 103808059 heartbeat IPC: 0.951424 cumulative IPC: 0.891572 (Simulation time: 4 hr 11 min 50 sec) 
Heartbeat CPU 0 instructions: 100000000 cycles: 104651834 heartbeat IPC: 1.18515 cumulative IPC: 0.894033 (Simulation time: 4 hr 13 min 48 sec) 
Heartbeat CPU 0 instructions: 101000000 cycles: 105476951 heartbeat IPC: 1.21195 cumulative IPC: 0.896617 (Simulation time: 4 hr 15 min 45 sec) 
Heartbeat CPU 0 instructions: 102000003 cycles: 106890664 heartbeat IPC: 0.707359 cumulative IPC: 0.894017 (Simulation time: 4 hr 17 min 45 sec) 
Heartbeat CPU 0 instructions: 103000001 cycles: 107812069 heartbeat IPC: 1.0853 cumulative IPC: 0.895715 (Simulation time: 4 hr 19 min 27 sec) 
Heartbeat CPU 0 instructions: 104000000 cycles: 108656928 heartbeat IPC: 1.18363 cumulative IPC: 0.898039 (Simulation time: 4 hr 21 min 2 sec) 
Heartbeat CPU 0 instructions: 105000002 cycles: 109712189 heartbeat IPC: 0.947635 cumulative IPC: 0.898534 (Simulation time: 4 hr 22 min 43 sec) 
Heartbeat CPU 0 instructions: 106000003 cycles: 111133457 heartbeat IPC: 0.703598 cumulative IPC: 0.895948 (Simulation time: 4 hr 24 min 17 sec) 
Heartbeat CPU 0 instructions: 107000001 cycles: 111995068 heartbeat IPC: 1.16061 cumulative IPC: 0.898059 (Simulation time: 4 hr 25 min 40 sec) 
Heartbeat CPU 0 instructions: 108000000 cycles: 112837933 heartbeat IPC: 1.18643 cumulative IPC: 0.900292 (Simulation time: 4 hr 27 min 0 sec) 
Heartbeat CPU 0 instructions: 109000001 cycles: 113942687 heartbeat IPC: 0.90518 cumulative IPC: 0.900341 (Simulation time: 4 hr 28 min 25 sec) 
Heartbeat CPU 0 instructions: 110000000 cycles: 115273359 heartbeat IPC: 0.751499 cumulative IPC: 0.898562 (Simulation time: 4 hr 29 min 44 sec) 
Finished CPU 0 instructions: 100000000 cycles: 111288969 cummulative IPC: 0.898562 (Simulation time: 4 hr 29 min 44 sec) 

ChampSim completed all CPUs

Region of Interest Statistics

CPU 0 cummulative IPC: 0.898562 instructions: 100000000 cycles: 111288969
LLC TOTAL     ACCESS:    1795799  HIT:     686872  MISS:    1108927
LLC LOAD      ACCESS:     314467  HIT:     259511  MISS:      54956
LLC RFO       ACCESS:      99596  HIT:      85730  MISS:      13866
LLC PREFETCH  ACCESS:    1240312  HIT:     211939  MISS:    1028373
LLC WRITEBACK ACCESS:     141424  HIT:     129692  MISS:      11732
