
*** ChampSim Multicore Out-of-Order Simulator ***

Warmup Instructions: 10000000
Simulation Instructions: 100000000
Configuration: 2
Number of CPUs: 1
LLC sets: 2048
LLC ways: 16
Off-chip DRAM Channels: 1 Width: 64-bit Data Rate: 1600 MT/s

CPU 0 runs /datasets/cs240c-wi22-a00-public/data/Assignment2-gz/wrf_1228B.trace.gz
CPU 0 L1D next line prefetcher
CPU 0 L2C IP-based stride prefetcher
config 2, num_core 1, llc_sets 2048
Heartbeat CPU 0 instructions: 1000003 cycles: 591063 heartbeat IPC: 1.69187 cumulative IPC: 1.69187 (Simulation time: 0 hr 3 min 14 sec) 
Heartbeat CPU 0 instructions: 2000003 cycles: 1111219 heartbeat IPC: 1.9225 cumulative IPC: 1.79983 (Simulation time: 0 hr 6 min 18 sec) 
Heartbeat CPU 0 instructions: 3000000 cycles: 1729184 heartbeat IPC: 1.61821 cumulative IPC: 1.73492 (Simulation time: 0 hr 9 min 26 sec) 
Heartbeat CPU 0 instructions: 4000000 cycles: 2349835 heartbeat IPC: 1.61121 cumulative IPC: 1.70225 (Simulation time: 0 hr 12 min 22 sec) 
Heartbeat CPU 0 instructions: 5000000 cycles: 3052198 heartbeat IPC: 1.42377 cumulative IPC: 1.63816 (Simulation time: 0 hr 15 min 11 sec) 
Heartbeat CPU 0 instructions: 6000000 cycles: 3612304 heartbeat IPC: 1.78538 cumulative IPC: 1.66099 (Simulation time: 0 hr 17 min 42 sec) 
Heartbeat CPU 0 instructions: 7000001 cycles: 4165076 heartbeat IPC: 1.80907 cumulative IPC: 1.68064 (Simulation time: 0 hr 20 min 28 sec) 
Heartbeat CPU 0 instructions: 8000000 cycles: 4716441 heartbeat IPC: 1.81368 cumulative IPC: 1.69619 (Simulation time: 0 hr 23 min 0 sec) 
Heartbeat CPU 0 instructions: 9000002 cycles: 5266621 heartbeat IPC: 1.81759 cumulative IPC: 1.70888 (Simulation time: 0 hr 25 min 32 sec) 
Heartbeat CPU 0 instructions: 10000001 cycles: 5819517 heartbeat IPC: 1.80866 cumulative IPC: 1.71836 (Simulation time: 0 hr 28 min 14 sec) 

Warmup complete CPU 0 instructions: 10000001 cycles: 5819517 (Simulation time: 0 hr 28 min 14 sec) 

Heartbeat CPU 0 instructions: 11000003 cycles: 6711881 heartbeat IPC: 1.12062 cumulative IPC: 1.12062 (Simulation time: 0 hr 30 min 49 sec) 
Heartbeat CPU 0 instructions: 12000000 cycles: 7711975 heartbeat IPC: 0.999903 cumulative IPC: 1.05683 (Simulation time: 0 hr 33 min 25 sec) 
Heartbeat CPU 0 instructions: 13000003 cycles: 8715915 heartbeat IPC: 0.996078 cumulative IPC: 1.03577 (Simulation time: 0 hr 36 min 0 sec) 
Heartbeat CPU 0 instructions: 14000002 cycles: 9626885 heartbeat IPC: 1.09773 cumulative IPC: 1.05059 (Simulation time: 0 hr 38 min 27 sec) 
Heartbeat CPU 0 instructions: 15000001 cycles: 10419005 heartbeat IPC: 1.26243 cumulative IPC: 1.08708 (Simulation time: 0 hr 40 min 41 sec) 
Heartbeat CPU 0 instructions: 16000000 cycles: 11299534 heartbeat IPC: 1.13568 cumulative IPC: 1.09489 (Simulation time: 0 hr 43 min 0 sec) 
Heartbeat CPU 0 instructions: 17000002 cycles: 12207408 heartbeat IPC: 1.10148 cumulative IPC: 1.09582 (Simulation time: 0 hr 45 min 25 sec) 
Heartbeat CPU 0 instructions: 18000003 cycles: 13046617 heartbeat IPC: 1.1916 cumulative IPC: 1.10694 (Simulation time: 0 hr 47 min 29 sec) 
Heartbeat CPU 0 instructions: 19000000 cycles: 13842158 heartbeat IPC: 1.257 cumulative IPC: 1.12182 (Simulation time: 0 hr 49 min 50 sec) 
Heartbeat CPU 0 instructions: 20000000 cycles: 14725243 heartbeat IPC: 1.13239 cumulative IPC: 1.12287 (Simulation time: 0 hr 52 min 14 sec) 
Heartbeat CPU 0 instructions: 21000000 cycles: 15623714 heartbeat IPC: 1.113 cumulative IPC: 1.12197 (Simulation time: 0 hr 54 min 40 sec) 
Heartbeat CPU 0 instructions: 22000000 cycles: 16541486 heartbeat IPC: 1.0896 cumulative IPC: 1.1192 (Simulation time: 0 hr 57 min 14 sec) 
Heartbeat CPU 0 instructions: 23000003 cycles: 17399178 heartbeat IPC: 1.16592 cumulative IPC: 1.12266 (Simulation time: 0 hr 59 min 50 sec) 
Heartbeat CPU 0 instructions: 24000000 cycles: 18371686 heartbeat IPC: 1.02827 cumulative IPC: 1.11535 (Simulation time: 1 hr 2 min 32 sec) 
Heartbeat CPU 0 instructions: 25000000 cycles: 19397072 heartbeat IPC: 0.975242 cumulative IPC: 1.10476 (Simulation time: 1 hr 5 min 46 sec) 
Heartbeat CPU 0 instructions: 26000003 cycles: 20328474 heartbeat IPC: 1.07365 cumulative IPC: 1.10277 (Simulation time: 1 hr 8 min 26 sec) 
Heartbeat CPU 0 instructions: 27000003 cycles: 21311414 heartbeat IPC: 1.01736 cumulative IPC: 1.09735 (Simulation time: 1 hr 11 min 3 sec) 
Heartbeat CPU 0 instructions: 28000000 cycles: 22368588 heartbeat IPC: 0.945915 cumulative IPC: 1.08767 (Simulation time: 1 hr 13 min 38 sec) 
Heartbeat CPU 0 instructions: 29000003 cycles: 23963690 heartbeat IPC: 0.626921 cumulative IPC: 1.04717 (Simulation time: 1 hr 16 min 44 sec) 
Heartbeat CPU 0 instructions: 30000000 cycles: 25512256 heartbeat IPC: 0.645757 cumulative IPC: 1.0156 (Simulation time: 1 hr 19 min 33 sec) 
Heartbeat CPU 0 instructions: 31000003 cycles: 27604407 heartbeat IPC: 0.477978 cumulative IPC: 0.963971 (Simulation time: 1 hr 22 min 53 sec) 
Heartbeat CPU 0 instructions: 32000000 cycles: 29605311 heartbeat IPC: 0.499773 cumulative IPC: 0.924922 (Simulation time: 1 hr 26 min 6 sec) 
Heartbeat CPU 0 instructions: 33000001 cycles: 31062965 heartbeat IPC: 0.686035 cumulative IPC: 0.911128 (Simulation time: 1 hr 29 min 15 sec) 
Heartbeat CPU 0 instructions: 34000002 cycles: 32566190 heartbeat IPC: 0.665237 cumulative IPC: 0.897308 (Simulation time: 1 hr 32 min 32 sec) 
Heartbeat CPU 0 instructions: 35000001 cycles: 34100753 heartbeat IPC: 0.651651 cumulative IPC: 0.883978 (Simulation time: 1 hr 35 min 37 sec) 
Heartbeat CPU 0 instructions: 36000000 cycles: 34948974 heartbeat IPC: 1.17894 cumulative IPC: 0.892567 (Simulation time: 1 hr 38 min 25 sec) 
Heartbeat CPU 0 instructions: 37000001 cycles: 35865754 heartbeat IPC: 1.09078 cumulative IPC: 0.898615 (Simulation time: 1 hr 41 min 2 sec) 
Heartbeat CPU 0 instructions: 38000003 cycles: 36820151 heartbeat IPC: 1.04778 cumulative IPC: 0.903207 (Simulation time: 1 hr 43 min 51 sec) 
Heartbeat CPU 0 instructions: 39000002 cycles: 37773095 heartbeat IPC: 1.04938 cumulative IPC: 0.907567 (Simulation time: 1 hr 46 min 29 sec) 
Heartbeat CPU 0 instructions: 40000000 cycles: 38653647 heartbeat IPC: 1.13565 cumulative IPC: 0.913683 (Simulation time: 1 hr 48 min 55 sec) 
Heartbeat CPU 0 instructions: 41000000 cycles: 39590950 heartbeat IPC: 1.06689 cumulative IPC: 0.917936 (Simulation time: 1 hr 51 min 34 sec) 
Heartbeat CPU 0 instructions: 42000002 cycles: 40551796 heartbeat IPC: 1.04075 cumulative IPC: 0.921333 (Simulation time: 1 hr 54 min 13 sec) 
Heartbeat CPU 0 instructions: 43000000 cycles: 41526486 heartbeat IPC: 1.02597 cumulative IPC: 0.924189 (Simulation time: 1 hr 56 min 52 sec) 
Heartbeat CPU 0 instructions: 44000000 cycles: 42362234 heartbeat IPC: 1.19653 cumulative IPC: 0.930418 (Simulation time: 1 hr 59 min 1 sec) 
Heartbeat CPU 0 instructions: 45000000 cycles: 43159253 heartbeat IPC: 1.25468 cumulative IPC: 0.937339 (Simulation time: 2 hr 0 min 54 sec) 
Heartbeat CPU 0 instructions: 46000001 cycles: 44030274 heartbeat IPC: 1.14808 cumulative IPC: 0.942143 (Simulation time: 2 hr 3 min 4 sec) 
Heartbeat CPU 0 instructions: 47000001 cycles: 44925972 heartbeat IPC: 1.11645 cumulative IPC: 0.946135 (Simulation time: 2 hr 5 min 23 sec) 
Heartbeat CPU 0 instructions: 48000000 cycles: 45763096 heartbeat IPC: 1.19456 cumulative IPC: 0.951342 (Simulation time: 2 hr 7 min 51 sec) 
Heartbeat CPU 0 instructions: 49000001 cycles: 46603366 heartbeat IPC: 1.19009 cumulative IPC: 0.956261 (Simulation time: 2 hr 10 min 14 sec) 
Heartbeat CPU 0 instructions: 50000002 cycles: 47505142 heartbeat IPC: 1.10892 cumulative IPC: 0.959563 (Simulation time: 2 hr 12 min 28 sec) 
Heartbeat CPU 0 instructions: 51000001 cycles: 48404680 heartbeat IPC: 1.11168 cumulative IPC: 0.962777 (Simulation time: 2 hr 14 min 50 sec) 
Heartbeat CPU 0 instructions: 52000000 cycles: 49322507 heartbeat IPC: 1.08953 cumulative IPC: 0.965451 (Simulation time: 2 hr 17 min 20 sec) 
Heartbeat CPU 0 instructions: 53000002 cycles: 50218289 heartbeat IPC: 1.11635 cumulative IPC: 0.968495 (Simulation time: 2 hr 19 min 51 sec) 
Heartbeat CPU 0 instructions: 54000001 cycles: 51202210 heartbeat IPC: 1.01634 cumulative IPC: 0.969533 (Simulation time: 2 hr 22 min 27 sec) 
Heartbeat CPU 0 instructions: 55000003 cycles: 52178460 heartbeat IPC: 1.02433 cumulative IPC: 0.970687 (Simulation time: 2 hr 25 min 12 sec) 
Heartbeat CPU 0 instructions: 56000000 cycles: 53130199 heartbeat IPC: 1.05071 cumulative IPC: 0.972296 (Simulation time: 2 hr 27 min 43 sec) 
Heartbeat CPU 0 instructions: 57000001 cycles: 54124519 heartbeat IPC: 1.00571 cumulative IPC: 0.972984 (Simulation time: 2 hr 30 min 7 sec) 
Heartbeat CPU 0 instructions: 58000000 cycles: 55134297 heartbeat IPC: 0.990316 cumulative IPC: 0.973339 (Simulation time: 2 hr 32 min 51 sec) 
Heartbeat CPU 0 instructions: 59000001 cycles: 56887756 heartbeat IPC: 0.570302 cumulative IPC: 0.9595 (Simulation time: 2 hr 35 min 52 sec) 
Heartbeat CPU 0 instructions: 60000000 cycles: 58590976 heartbeat IPC: 0.587123 cumulative IPC: 0.947482 (Simulation time: 2 hr 39 min 5 sec) 
Heartbeat CPU 0 instructions: 61000000 cycles: 60737025 heartbeat IPC: 0.465973 cumulative IPC: 0.928666 (Simulation time: 2 hr 41 min 55 sec) 
Heartbeat CPU 0 instructions: 62000000 cycles: 62394481 heartbeat IPC: 0.603334 cumulative IPC: 0.919134 (Simulation time: 2 hr 44 min 51 sec) 
Heartbeat CPU 0 instructions: 63000001 cycles: 63888684 heartbeat IPC: 0.669254 cumulative IPC: 0.912705 (Simulation time: 2 hr 47 min 55 sec) 
Heartbeat CPU 0 instructions: 64000000 cycles: 65425579 heartbeat IPC: 0.650662 cumulative IPC: 0.905948 (Simulation time: 2 hr 51 min 12 sec) 
Heartbeat CPU 0 instructions: 65000003 cycles: 66920407 heartbeat IPC: 0.668975 cumulative IPC: 0.900151 (Simulation time: 2 hr 54 min 11 sec) 
Heartbeat CPU 0 instructions: 66000000 cycles: 68415996 heartbeat IPC: 0.668631 cumulative IPC: 0.894619 (Simulation time: 2 hr 57 min 10 sec) 
Heartbeat CPU 0 instructions: 67000000 cycles: 69910516 heartbeat IPC: 0.669111 cumulative IPC: 0.88936 (Simulation time: 3 hr 0 min 24 sec) 
Heartbeat CPU 0 instructions: 68000000 cycles: 71404973 heartbeat IPC: 0.669139 cumulative IPC: 0.884342 (Simulation time: 3 hr 3 min 33 sec) 
Heartbeat CPU 0 instructions: 69000000 cycles: 72912223 heartbeat IPC: 0.66346 cumulative IPC: 0.87938 (Simulation time: 3 hr 6 min 47 sec) 
Heartbeat CPU 0 instructions: 70000001 cycles: 74409354 heartbeat IPC: 0.667945 cumulative IPC: 0.874765 (Simulation time: 3 hr 9 min 52 sec) 
Heartbeat CPU 0 instructions: 71000001 cycles: 75903378 heartbeat IPC: 0.669333 cumulative IPC: 0.870386 (Simulation time: 3 hr 13 min 0 sec) 
Heartbeat CPU 0 instructions: 72000000 cycles: 77386581 heartbeat IPC: 0.674216 cumulative IPC: 0.86632 (Simulation time: 3 hr 16 min 16 sec) 
Heartbeat CPU 0 instructions: 73000003 cycles: 78874292 heartbeat IPC: 0.672176 cumulative IPC: 0.862367 (Simulation time: 3 hr 19 min 44 sec) 
Heartbeat CPU 0 instructions: 74000000 cycles: 80371824 heartbeat IPC: 0.667763 cumulative IPC: 0.858458 (Simulation time: 3 hr 22 min 42 sec) 
Heartbeat CPU 0 instructions: 75000001 cycles: 81865800 heartbeat IPC: 0.669355 cumulative IPC: 0.854743 (Simulation time: 3 hr 25 min 38 sec) 
Heartbeat CPU 0 instructions: 76000000 cycles: 83362230 heartbeat IPC: 0.668256 cumulative IPC: 0.851144 (Simulation time: 3 hr 28 min 27 sec) 
Heartbeat CPU 0 instructions: 77000003 cycles: 84856025 heartbeat IPC: 0.669438 cumulative IPC: 0.84771 (Simulation time: 3 hr 31 min 14 sec) 
Heartbeat CPU 0 instructions: 78000001 cycles: 86350826 heartbeat IPC: 0.668984 cumulative IPC: 0.844392 (Simulation time: 3 hr 33 min 53 sec) 
Heartbeat CPU 0 instructions: 79000000 cycles: 87847260 heartbeat IPC: 0.668255 cumulative IPC: 0.841179 (Simulation time: 3 hr 36 min 20 sec) 
Heartbeat CPU 0 instructions: 80000000 cycles: 89337640 heartbeat IPC: 0.67097 cumulative IPC: 0.838141 (Simulation time: 3 hr 39 min 26 sec) 
Heartbeat CPU 0 instructions: 81000001 cycles: 90821574 heartbeat IPC: 0.673885 cumulative IPC: 0.835274 (Simulation time: 3 hr 42 min 18 sec) 
Heartbeat CPU 0 instructions: 82000000 cycles: 92304539 heartbeat IPC: 0.674324 cumulative IPC: 0.832514 (Simulation time: 3 hr 45 min 15 sec) 
Heartbeat CPU 0 instructions: 83000000 cycles: 93787887 heartbeat IPC: 0.674151 cumulative IPC: 0.829844 (Simulation time: 3 hr 48 min 10 sec) 
Heartbeat CPU 0 instructions: 84000000 cycles: 95282788 heartbeat IPC: 0.668941 cumulative IPC: 0.827155 (Simulation time: 3 hr 50 min 59 sec) 
Heartbeat CPU 0 instructions: 85000000 cycles: 96778002 heartbeat IPC: 0.668801 cumulative IPC: 0.824552 (Simulation time: 3 hr 54 min 5 sec) 
Heartbeat CPU 0 instructions: 86000000 cycles: 98271797 heartbeat IPC: 0.669436 cumulative IPC: 0.822046 (Simulation time: 3 hr 56 min 43 sec) 
Heartbeat CPU 0 instructions: 87000000 cycles: 99766648 heartbeat IPC: 0.668963 cumulative IPC: 0.81961 (Simulation time: 3 hr 59 min 21 sec) 
Heartbeat CPU 0 instructions: 88000000 cycles: 101261873 heartbeat IPC: 0.668796 cumulative IPC: 0.817247 (Simulation time: 4 hr 1 min 50 sec) 
Heartbeat CPU 0 instructions: 89000002 cycles: 102757494 heartbeat IPC: 0.66862 cumulative IPC: 0.814954 (Simulation time: 4 hr 4 min 30 sec) 
Heartbeat CPU 0 instructions: 90000000 cycles: 104241828 heartbeat IPC: 0.673701 cumulative IPC: 0.812824 (Simulation time: 4 hr 7 min 18 sec) 
Heartbeat CPU 0 instructions: 91000000 cycles: 105725549 heartbeat IPC: 0.673981 cumulative IPC: 0.810762 (Simulation time: 4 hr 9 min 58 sec) 
Heartbeat CPU 0 instructions: 92000000 cycles: 107209389 heartbeat IPC: 0.673927 cumulative IPC: 0.808759 (Simulation time: 4 hr 12 min 36 sec) 
Heartbeat CPU 0 instructions: 93000000 cycles: 108699127 heartbeat IPC: 0.671259 cumulative IPC: 0.806768 (Simulation time: 4 hr 15 min 19 sec) 
Heartbeat CPU 0 instructions: 94000003 cycles: 110192982 heartbeat IPC: 0.669411 cumulative IPC: 0.804802 (Simulation time: 4 hr 17 min 38 sec) 
Heartbeat CPU 0 instructions: 95000000 cycles: 111688778 heartbeat IPC: 0.668538 cumulative IPC: 0.802877 (Simulation time: 4 hr 19 min 48 sec) 
Heartbeat CPU 0 instructions: 96000000 cycles: 113182732 heartbeat IPC: 0.669365 cumulative IPC: 0.801019 (Simulation time: 4 hr 21 min 55 sec) 
Heartbeat CPU 0 instructions: 97000001 cycles: 114678278 heartbeat IPC: 0.668653 cumulative IPC: 0.799201 (Simulation time: 4 hr 23 min 50 sec) 
Heartbeat CPU 0 instructions: 98000003 cycles: 116173957 heartbeat IPC: 0.668594 cumulative IPC: 0.797431 (Simulation time: 4 hr 25 min 39 sec) 
Heartbeat CPU 0 instructions: 99000000 cycles: 117663059 heartbeat IPC: 0.671544 cumulative IPC: 0.795754 (Simulation time: 4 hr 27 min 22 sec) 
Heartbeat CPU 0 instructions: 100000000 cycles: 119146665 heartbeat IPC: 0.674033 cumulative IPC: 0.794161 (Simulation time: 4 hr 29 min 4 sec) 
Heartbeat CPU 0 instructions: 101000000 cycles: 120629875 heartbeat IPC: 0.674213 cumulative IPC: 0.792611 (Simulation time: 4 hr 30 min 39 sec) 
Heartbeat CPU 0 instructions: 102000003 cycles: 122113458 heartbeat IPC: 0.674046 cumulative IPC: 0.791099 (Simulation time: 4 hr 32 min 12 sec) 
Heartbeat CPU 0 instructions: 103000003 cycles: 123609719 heartbeat IPC: 0.668333 cumulative IPC: 0.789539 (Simulation time: 4 hr 33 min 46 sec) 
Heartbeat CPU 0 instructions: 104000000 cycles: 125104256 heartbeat IPC: 0.669102 cumulative IPC: 0.78803 (Simulation time: 4 hr 35 min 5 sec) 
Heartbeat CPU 0 instructions: 105000000 cycles: 126599151 heartbeat IPC: 0.668943 cumulative IPC: 0.786556 (Simulation time: 4 hr 36 min 17 sec) 
Heartbeat CPU 0 instructions: 106000000 cycles: 128094212 heartbeat IPC: 0.668869 cumulative IPC: 0.785117 (Simulation time: 4 hr 37 min 31 sec) 
Heartbeat CPU 0 instructions: 107000000 cycles: 129590068 heartbeat IPC: 0.668514 cumulative IPC: 0.783708 (Simulation time: 4 hr 38 min 46 sec) 
Heartbeat CPU 0 instructions: 108000000 cycles: 131085645 heartbeat IPC: 0.668638 cumulative IPC: 0.782334 (Simulation time: 4 hr 39 min 50 sec) 
Heartbeat CPU 0 instructions: 109000003 cycles: 132568505 heartbeat IPC: 0.674375 cumulative IPC: 0.781071 (Simulation time: 4 hr 40 min 45 sec) 
Heartbeat CPU 0 instructions: 110000001 cycles: 134052024 heartbeat IPC: 0.674072 cumulative IPC: 0.779833 (Simulation time: 4 hr 41 min 36 sec) 
Finished CPU 0 instructions: 100000000 cycles: 128232507 cummulative IPC: 0.779833 (Simulation time: 4 hr 41 min 36 sec) 

ChampSim completed all CPUs

Region of Interest Statistics

CPU 0 cummulative IPC: 0.779833 instructions: 100000000 cycles: 128232507
LLC TOTAL     ACCESS:    1495518  HIT:     261107  MISS:    1234411
LLC LOAD      ACCESS:      88640  HIT:      20385  MISS:      68255
LLC RFO       ACCESS:     219209  HIT:      22614  MISS:     196595
LLC PREFETCH  ACCESS:     751523  HIT:     104978  MISS:     646545
LLC WRITEBACK ACCESS:     436146  HIT:     113130  MISS:     323016
