
*** ChampSim Multicore Out-of-Order Simulator ***

Warmup Instructions: 10000000
Simulation Instructions: 100000000
Configuration: 2
Number of CPUs: 1
LLC sets: 2048
LLC ways: 16
Off-chip DRAM Channels: 1 Width: 64-bit Data Rate: 1600 MT/s

CPU 0 runs /datasets/cs240c-wi22-a00-public/data/Assignment2-gz/gcc_56B.trace.gz
CPU 0 L1D next line prefetcher
CPU 0 L2C IP-based stride prefetcher
config 2, num_core 1, llc_sets 2048
Heartbeat CPU 0 instructions: 1000003 cycles: 954160 heartbeat IPC: 1.04805 cumulative IPC: 1.04805 (Simulation time: 0 hr 3 min 9 sec) 
Heartbeat CPU 0 instructions: 2000001 cycles: 1898358 heartbeat IPC: 1.0591 cumulative IPC: 1.05354 (Simulation time: 0 hr 6 min 1 sec) 
Heartbeat CPU 0 instructions: 3000001 cycles: 2885602 heartbeat IPC: 1.01292 cumulative IPC: 1.03964 (Simulation time: 0 hr 9 min 5 sec) 
Heartbeat CPU 0 instructions: 4000000 cycles: 3848230 heartbeat IPC: 1.03882 cumulative IPC: 1.03944 (Simulation time: 0 hr 11 min 53 sec) 
Heartbeat CPU 0 instructions: 5000002 cycles: 4737710 heartbeat IPC: 1.12425 cumulative IPC: 1.05536 (Simulation time: 0 hr 14 min 34 sec) 
Heartbeat CPU 0 instructions: 6000000 cycles: 5685665 heartbeat IPC: 1.0549 cumulative IPC: 1.05529 (Simulation time: 0 hr 17 min 19 sec) 
Heartbeat CPU 0 instructions: 7000000 cycles: 6649900 heartbeat IPC: 1.03709 cumulative IPC: 1.05265 (Simulation time: 0 hr 20 min 21 sec) 
Heartbeat CPU 0 instructions: 8000000 cycles: 7611123 heartbeat IPC: 1.04034 cumulative IPC: 1.05109 (Simulation time: 0 hr 23 min 15 sec) 
Heartbeat CPU 0 instructions: 9000000 cycles: 8622595 heartbeat IPC: 0.988658 cumulative IPC: 1.04377 (Simulation time: 0 hr 26 min 0 sec) 
Heartbeat CPU 0 instructions: 10000002 cycles: 9583106 heartbeat IPC: 1.04111 cumulative IPC: 1.0435 (Simulation time: 0 hr 28 min 36 sec) 

Warmup complete CPU 0 instructions: 10000002 cycles: 9583106 (Simulation time: 0 hr 28 min 36 sec) 

Heartbeat CPU 0 instructions: 11000000 cycles: 10925652 heartbeat IPC: 0.744852 cumulative IPC: 0.744852 (Simulation time: 0 hr 31 min 21 sec) 
Heartbeat CPU 0 instructions: 12000000 cycles: 12345253 heartbeat IPC: 0.704423 cumulative IPC: 0.724074 (Simulation time: 0 hr 34 min 1 sec) 
Heartbeat CPU 0 instructions: 13000001 cycles: 13726411 heartbeat IPC: 0.724031 cumulative IPC: 0.724059 (Simulation time: 0 hr 36 min 44 sec) 
Heartbeat CPU 0 instructions: 14000000 cycles: 15053242 heartbeat IPC: 0.753675 cumulative IPC: 0.731243 (Simulation time: 0 hr 39 min 26 sec) 
Heartbeat CPU 0 instructions: 15000003 cycles: 16421674 heartbeat IPC: 0.730766 cumulative IPC: 0.731147 (Simulation time: 0 hr 42 min 26 sec) 
Heartbeat CPU 0 instructions: 16000000 cycles: 17739936 heartbeat IPC: 0.758572 cumulative IPC: 0.73558 (Simulation time: 0 hr 45 min 26 sec) 
Heartbeat CPU 0 instructions: 17000001 cycles: 19053287 heartbeat IPC: 0.761412 cumulative IPC: 0.739162 (Simulation time: 0 hr 48 min 8 sec) 
Heartbeat CPU 0 instructions: 18000000 cycles: 20435067 heartbeat IPC: 0.723704 cumulative IPC: 0.737194 (Simulation time: 0 hr 50 min 57 sec) 
Heartbeat CPU 0 instructions: 19000000 cycles: 21801787 heartbeat IPC: 0.731679 cumulative IPC: 0.736577 (Simulation time: 0 hr 53 min 41 sec) 
Heartbeat CPU 0 instructions: 20000000 cycles: 23157624 heartbeat IPC: 0.737552 cumulative IPC: 0.736674 (Simulation time: 0 hr 56 min 27 sec) 
Heartbeat CPU 0 instructions: 21000000 cycles: 24493137 heartbeat IPC: 0.748776 cumulative IPC: 0.737758 (Simulation time: 0 hr 59 min 18 sec) 
Heartbeat CPU 0 instructions: 22000000 cycles: 25811329 heartbeat IPC: 0.758615 cumulative IPC: 0.739452 (Simulation time: 1 hr 2 min 13 sec) 
Heartbeat CPU 0 instructions: 23000000 cycles: 27137607 heartbeat IPC: 0.75399 cumulative IPC: 0.740551 (Simulation time: 1 hr 5 min 3 sec) 
Heartbeat CPU 0 instructions: 24000000 cycles: 28486879 heartbeat IPC: 0.74114 cumulative IPC: 0.740593 (Simulation time: 1 hr 7 min 48 sec) 
Heartbeat CPU 0 instructions: 25000000 cycles: 29846486 heartbeat IPC: 0.735507 cumulative IPC: 0.740252 (Simulation time: 1 hr 10 min 40 sec) 
Heartbeat CPU 0 instructions: 26000002 cycles: 31245721 heartbeat IPC: 0.714678 cumulative IPC: 0.7386 (Simulation time: 1 hr 13 min 15 sec) 
Heartbeat CPU 0 instructions: 27000000 cycles: 32621436 heartbeat IPC: 0.726893 cumulative IPC: 0.737901 (Simulation time: 1 hr 16 min 11 sec) 
Heartbeat CPU 0 instructions: 28000000 cycles: 33949095 heartbeat IPC: 0.753205 cumulative IPC: 0.738735 (Simulation time: 1 hr 18 min 47 sec) 
Heartbeat CPU 0 instructions: 29000000 cycles: 35281292 heartbeat IPC: 0.75064 cumulative IPC: 0.739352 (Simulation time: 1 hr 21 min 43 sec) 
Heartbeat CPU 0 instructions: 30000000 cycles: 36618452 heartbeat IPC: 0.747854 cumulative IPC: 0.739772 (Simulation time: 1 hr 24 min 22 sec) 
Heartbeat CPU 0 instructions: 31000000 cycles: 37966103 heartbeat IPC: 0.742032 cumulative IPC: 0.739879 (Simulation time: 1 hr 26 min 54 sec) 
Heartbeat CPU 0 instructions: 32000000 cycles: 39340519 heartbeat IPC: 0.727582 cumulative IPC: 0.739312 (Simulation time: 1 hr 29 min 40 sec) 
Heartbeat CPU 0 instructions: 33000002 cycles: 40747572 heartbeat IPC: 0.710707 cumulative IPC: 0.73802 (Simulation time: 1 hr 32 min 17 sec) 
Heartbeat CPU 0 instructions: 34000002 cycles: 42112927 heartbeat IPC: 0.73241 cumulative IPC: 0.737785 (Simulation time: 1 hr 35 min 25 sec) 
Heartbeat CPU 0 instructions: 35000002 cycles: 43462501 heartbeat IPC: 0.740975 cumulative IPC: 0.737912 (Simulation time: 1 hr 38 min 0 sec) 
Heartbeat CPU 0 instructions: 36000000 cycles: 44793913 heartbeat IPC: 0.751081 cumulative IPC: 0.73841 (Simulation time: 1 hr 40 min 34 sec) 
Heartbeat CPU 0 instructions: 37000000 cycles: 46109924 heartbeat IPC: 0.759872 cumulative IPC: 0.739183 (Simulation time: 1 hr 43 min 3 sec) 
Heartbeat CPU 0 instructions: 38000002 cycles: 47447215 heartbeat IPC: 0.747782 cumulative IPC: 0.739487 (Simulation time: 1 hr 45 min 30 sec) 
Heartbeat CPU 0 instructions: 39000000 cycles: 48853180 heartbeat IPC: 0.711254 cumulative IPC: 0.738476 (Simulation time: 1 hr 48 min 8 sec) 
Heartbeat CPU 0 instructions: 40000000 cycles: 50220405 heartbeat IPC: 0.731409 cumulative IPC: 0.738238 (Simulation time: 1 hr 50 min 37 sec) 
Heartbeat CPU 0 instructions: 41000001 cycles: 51567748 heartbeat IPC: 0.742202 cumulative IPC: 0.738365 (Simulation time: 1 hr 53 min 20 sec) 
Heartbeat CPU 0 instructions: 42000003 cycles: 52903686 heartbeat IPC: 0.748539 cumulative IPC: 0.738679 (Simulation time: 1 hr 56 min 17 sec) 
Heartbeat CPU 0 instructions: 43000001 cycles: 54246207 heartbeat IPC: 0.744866 cumulative IPC: 0.738865 (Simulation time: 1 hr 59 min 6 sec) 
Heartbeat CPU 0 instructions: 44000000 cycles: 55579414 heartbeat IPC: 0.75007 cumulative IPC: 0.73919 (Simulation time: 2 hr 1 min 27 sec) 
Heartbeat CPU 0 instructions: 45000000 cycles: 56954180 heartbeat IPC: 0.727396 cumulative IPC: 0.738847 (Simulation time: 2 hr 4 min 17 sec) 
Heartbeat CPU 0 instructions: 46000000 cycles: 58354559 heartbeat IPC: 0.714092 cumulative IPC: 0.738137 (Simulation time: 2 hr 7 min 13 sec) 
Heartbeat CPU 0 instructions: 47000002 cycles: 59735648 heartbeat IPC: 0.724068 cumulative IPC: 0.737749 (Simulation time: 2 hr 9 min 47 sec) 
Heartbeat CPU 0 instructions: 48000000 cycles: 61089625 heartbeat IPC: 0.738563 cumulative IPC: 0.737771 (Simulation time: 2 hr 12 min 38 sec) 
Heartbeat CPU 0 instructions: 49000002 cycles: 62423438 heartbeat IPC: 0.749732 cumulative IPC: 0.738073 (Simulation time: 2 hr 15 min 25 sec) 
Heartbeat CPU 0 instructions: 50000000 cycles: 63752478 heartbeat IPC: 0.752421 cumulative IPC: 0.738425 (Simulation time: 2 hr 18 min 28 sec) 
Heartbeat CPU 0 instructions: 51000000 cycles: 65116591 heartbeat IPC: 0.733077 cumulative IPC: 0.738293 (Simulation time: 2 hr 21 min 18 sec) 
Heartbeat CPU 0 instructions: 52000000 cycles: 66517377 heartbeat IPC: 0.713885 cumulative IPC: 0.737693 (Simulation time: 2 hr 24 min 5 sec) 
Heartbeat CPU 0 instructions: 53000001 cycles: 67860958 heartbeat IPC: 0.74428 cumulative IPC: 0.737845 (Simulation time: 2 hr 26 min 47 sec) 
Heartbeat CPU 0 instructions: 54000000 cycles: 69186018 heartbeat IPC: 0.754682 cumulative IPC: 0.738219 (Simulation time: 2 hr 29 min 29 sec) 
Heartbeat CPU 0 instructions: 55000001 cycles: 70502630 heartbeat IPC: 0.759526 cumulative IPC: 0.738679 (Simulation time: 2 hr 32 min 6 sec) 
Heartbeat CPU 0 instructions: 56000000 cycles: 71834652 heartbeat IPC: 0.750738 cumulative IPC: 0.738937 (Simulation time: 2 hr 34 min 48 sec) 
Heartbeat CPU 0 instructions: 57000001 cycles: 73178559 heartbeat IPC: 0.7441 cumulative IPC: 0.739047 (Simulation time: 2 hr 37 min 26 sec) 
Heartbeat CPU 0 instructions: 58000000 cycles: 74565968 heartbeat IPC: 0.720767 cumulative IPC: 0.738656 (Simulation time: 2 hr 40 min 10 sec) 
Heartbeat CPU 0 instructions: 59000000 cycles: 75972034 heartbeat IPC: 0.711204 cumulative IPC: 0.738075 (Simulation time: 2 hr 42 min 49 sec) 
Heartbeat CPU 0 instructions: 60000000 cycles: 77358031 heartbeat IPC: 0.721502 cumulative IPC: 0.737736 (Simulation time: 2 hr 46 min 11 sec) 
Heartbeat CPU 0 instructions: 61000000 cycles: 78698291 heartbeat IPC: 0.746124 cumulative IPC: 0.737899 (Simulation time: 2 hr 49 min 7 sec) 
Heartbeat CPU 0 instructions: 62000002 cycles: 80071825 heartbeat IPC: 0.72805 cumulative IPC: 0.737707 (Simulation time: 2 hr 52 min 16 sec) 
Heartbeat CPU 0 instructions: 63000003 cycles: 81400043 heartbeat IPC: 0.752889 cumulative IPC: 0.737988 (Simulation time: 2 hr 55 min 17 sec) 
Heartbeat CPU 0 instructions: 64000000 cycles: 82731927 heartbeat IPC: 0.750814 cumulative IPC: 0.738221 (Simulation time: 2 hr 58 min 11 sec) 
Heartbeat CPU 0 instructions: 65000000 cycles: 84089632 heartbeat IPC: 0.736537 cumulative IPC: 0.73819 (Simulation time: 3 hr 0 min 57 sec) 
Heartbeat CPU 0 instructions: 66000002 cycles: 85491708 heartbeat IPC: 0.71323 cumulative IPC: 0.737729 (Simulation time: 3 hr 3 min 32 sec) 
Heartbeat CPU 0 instructions: 67000002 cycles: 86888420 heartbeat IPC: 0.715967 cumulative IPC: 0.737336 (Simulation time: 3 hr 6 min 27 sec) 
Heartbeat CPU 0 instructions: 68000000 cycles: 88250674 heartbeat IPC: 0.734076 cumulative IPC: 0.73728 (Simulation time: 3 hr 8 min 56 sec) 
Heartbeat CPU 0 instructions: 69000000 cycles: 89590201 heartbeat IPC: 0.746532 cumulative IPC: 0.737435 (Simulation time: 3 hr 11 min 33 sec) 
Heartbeat CPU 0 instructions: 70000000 cycles: 90929164 heartbeat IPC: 0.746847 cumulative IPC: 0.737589 (Simulation time: 3 hr 14 min 21 sec) 
Heartbeat CPU 0 instructions: 71000003 cycles: 92281028 heartbeat IPC: 0.739722 cumulative IPC: 0.737624 (Simulation time: 3 hr 17 min 7 sec) 
Heartbeat CPU 0 instructions: 72000000 cycles: 93632673 heartbeat IPC: 0.739837 cumulative IPC: 0.73766 (Simulation time: 3 hr 19 min 35 sec) 
Heartbeat CPU 0 instructions: 73000003 cycles: 95012540 heartbeat IPC: 0.72471 cumulative IPC: 0.737451 (Simulation time: 3 hr 22 min 22 sec) 
Heartbeat CPU 0 instructions: 74000001 cycles: 96422173 heartbeat IPC: 0.709403 cumulative IPC: 0.736995 (Simulation time: 3 hr 24 min 59 sec) 
Heartbeat CPU 0 instructions: 75000003 cycles: 97809362 heartbeat IPC: 0.720884 cumulative IPC: 0.736742 (Simulation time: 3 hr 27 min 36 sec) 
Heartbeat CPU 0 instructions: 76000000 cycles: 99164189 heartbeat IPC: 0.738099 cumulative IPC: 0.736763 (Simulation time: 3 hr 30 min 6 sec) 
Heartbeat CPU 0 instructions: 77000003 cycles: 100512309 heartbeat IPC: 0.741776 cumulative IPC: 0.736837 (Simulation time: 3 hr 32 min 49 sec) 
Heartbeat CPU 0 instructions: 78000001 cycles: 101856944 heartbeat IPC: 0.743695 cumulative IPC: 0.736937 (Simulation time: 3 hr 35 min 14 sec) 
Heartbeat CPU 0 instructions: 79000000 cycles: 103225579 heartbeat IPC: 0.730654 cumulative IPC: 0.736845 (Simulation time: 3 hr 37 min 47 sec) 
Heartbeat CPU 0 instructions: 80000000 cycles: 104586138 heartbeat IPC: 0.734992 cumulative IPC: 0.736819 (Simulation time: 3 hr 40 min 37 sec) 
Heartbeat CPU 0 instructions: 81000002 cycles: 105975897 heartbeat IPC: 0.719551 cumulative IPC: 0.73657 (Simulation time: 3 hr 43 min 12 sec) 
Heartbeat CPU 0 instructions: 82000000 cycles: 107359989 heartbeat IPC: 0.722494 cumulative IPC: 0.73637 (Simulation time: 3 hr 45 min 51 sec) 
Heartbeat CPU 0 instructions: 83000003 cycles: 108702065 heartbeat IPC: 0.745117 cumulative IPC: 0.736489 (Simulation time: 3 hr 48 min 38 sec) 
Heartbeat CPU 0 instructions: 84000000 cycles: 110057545 heartbeat IPC: 0.737744 cumulative IPC: 0.736506 (Simulation time: 3 hr 51 min 19 sec) 
Heartbeat CPU 0 instructions: 85000002 cycles: 111382263 heartbeat IPC: 0.754879 cumulative IPC: 0.736745 (Simulation time: 3 hr 54 min 15 sec) 
Heartbeat CPU 0 instructions: 86000003 cycles: 112696217 heartbeat IPC: 0.761062 cumulative IPC: 0.737055 (Simulation time: 3 hr 56 min 57 sec) 
Heartbeat CPU 0 instructions: 87000000 cycles: 114089661 heartbeat IPC: 0.717644 cumulative IPC: 0.736796 (Simulation time: 3 hr 59 min 31 sec) 
Heartbeat CPU 0 instructions: 88000000 cycles: 115450998 heartbeat IPC: 0.734572 cumulative IPC: 0.736767 (Simulation time: 4 hr 2 min 6 sec) 
Heartbeat CPU 0 instructions: 89000000 cycles: 116823150 heartbeat IPC: 0.728782 cumulative IPC: 0.736665 (Simulation time: 4 hr 4 min 25 sec) 
Heartbeat CPU 0 instructions: 90000000 cycles: 118152256 heartbeat IPC: 0.752385 cumulative IPC: 0.736858 (Simulation time: 4 hr 6 min 59 sec) 
Heartbeat CPU 0 instructions: 91000001 cycles: 119470035 heartbeat IPC: 0.758853 cumulative IPC: 0.737121 (Simulation time: 4 hr 9 min 29 sec) 
Heartbeat CPU 0 instructions: 92000000 cycles: 120799938 heartbeat IPC: 0.751934 cumulative IPC: 0.737298 (Simulation time: 4 hr 11 min 41 sec) 
Heartbeat CPU 0 instructions: 93000003 cycles: 122193805 heartbeat IPC: 0.717431 cumulative IPC: 0.737053 (Simulation time: 4 hr 14 min 3 sec) 
Heartbeat CPU 0 instructions: 94000000 cycles: 123549390 heartbeat IPC: 0.737687 cumulative IPC: 0.73706 (Simulation time: 4 hr 16 min 15 sec) 
Heartbeat CPU 0 instructions: 95000000 cycles: 124913739 heartbeat IPC: 0.73295 cumulative IPC: 0.737011 (Simulation time: 4 hr 18 min 19 sec) 
Heartbeat CPU 0 instructions: 96000000 cycles: 126258708 heartbeat IPC: 0.743512 cumulative IPC: 0.737086 (Simulation time: 4 hr 20 min 18 sec) 
Heartbeat CPU 0 instructions: 97000000 cycles: 127580621 heartbeat IPC: 0.756479 cumulative IPC: 0.737304 (Simulation time: 4 hr 22 min 16 sec) 
Heartbeat CPU 0 instructions: 98000003 cycles: 128905708 heartbeat IPC: 0.75467 cumulative IPC: 0.737496 (Simulation time: 4 hr 24 min 3 sec) 
Heartbeat CPU 0 instructions: 99000000 cycles: 130304708 heartbeat IPC: 0.714794 cumulative IPC: 0.737233 (Simulation time: 4 hr 25 min 48 sec) 
Heartbeat CPU 0 instructions: 100000000 cycles: 131661279 heartbeat IPC: 0.737153 cumulative IPC: 0.737233 (Simulation time: 4 hr 27 min 20 sec) 
Heartbeat CPU 0 instructions: 101000000 cycles: 133021243 heartbeat IPC: 0.735314 cumulative IPC: 0.737211 (Simulation time: 4 hr 28 min 50 sec) 
Heartbeat CPU 0 instructions: 102000001 cycles: 134349330 heartbeat IPC: 0.752963 cumulative IPC: 0.737379 (Simulation time: 4 hr 30 min 19 sec) 
Heartbeat CPU 0 instructions: 103000001 cycles: 135664993 heartbeat IPC: 0.760073 cumulative IPC: 0.737616 (Simulation time: 4 hr 31 min 42 sec) 
Heartbeat CPU 0 instructions: 104000000 cycles: 136983809 heartbeat IPC: 0.758255 cumulative IPC: 0.73783 (Simulation time: 4 hr 32 min 59 sec) 
Heartbeat CPU 0 instructions: 105000002 cycles: 138378166 heartbeat IPC: 0.717178 cumulative IPC: 0.737606 (Simulation time: 4 hr 34 min 11 sec) 
Heartbeat CPU 0 instructions: 106000000 cycles: 139796404 heartbeat IPC: 0.705099 cumulative IPC: 0.737252 (Simulation time: 4 hr 35 min 30 sec) 
Heartbeat CPU 0 instructions: 107000002 cycles: 141198795 heartbeat IPC: 0.713069 cumulative IPC: 0.736994 (Simulation time: 4 hr 36 min 39 sec) 
Heartbeat CPU 0 instructions: 108000000 cycles: 142572110 heartbeat IPC: 0.728164 cumulative IPC: 0.736903 (Simulation time: 4 hr 37 min 54 sec) 
Heartbeat CPU 0 instructions: 109000000 cycles: 143925142 heartbeat IPC: 0.739081 cumulative IPC: 0.736925 (Simulation time: 4 hr 39 min 6 sec) 
Heartbeat CPU 0 instructions: 110000000 cycles: 145271151 heartbeat IPC: 0.742937 cumulative IPC: 0.736985 (Simulation time: 4 hr 40 min 11 sec) 
Finished CPU 0 instructions: 100000003 cycles: 135688047 cummulative IPC: 0.736985 (Simulation time: 4 hr 40 min 11 sec) 

ChampSim completed all CPUs

Region of Interest Statistics

CPU 0 cummulative IPC: 0.736985 instructions: 100000003 cycles: 135688047
LLC TOTAL     ACCESS:   21346122  HIT:   21201376  MISS:     144746
LLC LOAD      ACCESS:     165904  HIT:     126412  MISS:      39492
LLC RFO       ACCESS:   10463422  HIT:   10457676  MISS:       5746
LLC PREFETCH  ACCESS:     183308  HIT:      92220  MISS:      91088
LLC WRITEBACK ACCESS:   10533488  HIT:   10525068  MISS:       8420
