
*** ChampSim Multicore Out-of-Order Simulator ***

Warmup Instructions: 10000000
Simulation Instructions: 100000000
Configuration: 2
Number of CPUs: 1
LLC sets: 2048
LLC ways: 16
Off-chip DRAM Channels: 1 Width: 64-bit Data Rate: 1600 MT/s

CPU 0 runs /datasets/cs240c-wi22-a00-public/data/Assignment2-gz/calculix_2655B.trace.gz
CPU 0 L1D next line prefetcher
CPU 0 L2C IP-based stride prefetcher
config 2, num_core 1, llc_sets 2048
Heartbeat CPU 0 instructions: 1000003 cycles: 392363 heartbeat IPC: 2.54867 cumulative IPC: 2.54867 (Simulation time: 0 hr 2 min 0 sec) 
Heartbeat CPU 0 instructions: 2000001 cycles: 785087 heartbeat IPC: 2.54631 cumulative IPC: 2.54749 (Simulation time: 0 hr 3 min 57 sec) 
Heartbeat CPU 0 instructions: 3000002 cycles: 1177606 heartbeat IPC: 2.54765 cumulative IPC: 2.54754 (Simulation time: 0 hr 5 min 48 sec) 
Heartbeat CPU 0 instructions: 4000000 cycles: 1569370 heartbeat IPC: 2.55255 cumulative IPC: 2.54879 (Simulation time: 0 hr 7 min 45 sec) 
Heartbeat CPU 0 instructions: 5000003 cycles: 1961558 heartbeat IPC: 2.54981 cumulative IPC: 2.549 (Simulation time: 0 hr 9 min 45 sec) 
Heartbeat CPU 0 instructions: 6000003 cycles: 2353701 heartbeat IPC: 2.55009 cumulative IPC: 2.54918 (Simulation time: 0 hr 11 min 47 sec) 
Heartbeat CPU 0 instructions: 7000002 cycles: 2745891 heartbeat IPC: 2.54978 cumulative IPC: 2.54926 (Simulation time: 0 hr 13 min 42 sec) 
Heartbeat CPU 0 instructions: 8000000 cycles: 3137917 heartbeat IPC: 2.55085 cumulative IPC: 2.54946 (Simulation time: 0 hr 15 min 45 sec) 
Heartbeat CPU 0 instructions: 9000001 cycles: 3530136 heartbeat IPC: 2.5496 cumulative IPC: 2.54948 (Simulation time: 0 hr 17 min 37 sec) 
Heartbeat CPU 0 instructions: 10000000 cycles: 3921649 heartbeat IPC: 2.55419 cumulative IPC: 2.54995 (Simulation time: 0 hr 19 min 36 sec) 

Warmup complete CPU 0 instructions: 10000004 cycles: 3921650 (Simulation time: 0 hr 19 min 36 sec) 

Heartbeat CPU 0 instructions: 11000001 cycles: 4407295 heartbeat IPC: 2.05912 cumulative IPC: 2.05911 (Simulation time: 0 hr 21 min 51 sec) 
Heartbeat CPU 0 instructions: 12000000 cycles: 4854693 heartbeat IPC: 2.23514 cumulative IPC: 2.14352 (Simulation time: 0 hr 24 min 12 sec) 
Heartbeat CPU 0 instructions: 13000000 cycles: 5296902 heartbeat IPC: 2.26137 cumulative IPC: 2.18142 (Simulation time: 0 hr 26 min 21 sec) 
Heartbeat CPU 0 instructions: 14000002 cycles: 5730792 heartbeat IPC: 2.30474 cumulative IPC: 2.21099 (Simulation time: 0 hr 28 min 42 sec) 
Heartbeat CPU 0 instructions: 15000001 cycles: 6157015 heartbeat IPC: 2.34619 cumulative IPC: 2.23677 (Simulation time: 0 hr 30 min 56 sec) 
Heartbeat CPU 0 instructions: 16000000 cycles: 6776756 heartbeat IPC: 1.61358 cumulative IPC: 2.1015 (Simulation time: 0 hr 33 min 22 sec) 
Heartbeat CPU 0 instructions: 17000000 cycles: 7272707 heartbeat IPC: 2.01633 cumulative IPC: 2.08889 (Simulation time: 0 hr 35 min 47 sec) 
Heartbeat CPU 0 instructions: 18000000 cycles: 7705194 heartbeat IPC: 2.31221 cumulative IPC: 2.11442 (Simulation time: 0 hr 38 min 8 sec) 
Heartbeat CPU 0 instructions: 19000000 cycles: 8131961 heartbeat IPC: 2.3432 cumulative IPC: 2.13761 (Simulation time: 0 hr 40 min 19 sec) 
Heartbeat CPU 0 instructions: 20000000 cycles: 8557492 heartbeat IPC: 2.35001 cumulative IPC: 2.1571 (Simulation time: 0 hr 42 min 35 sec) 
Heartbeat CPU 0 instructions: 21000002 cycles: 8983286 heartbeat IPC: 2.34856 cumulative IPC: 2.17321 (Simulation time: 0 hr 44 min 44 sec) 
Heartbeat CPU 0 instructions: 22000003 cycles: 9662413 heartbeat IPC: 1.47248 cumulative IPC: 2.09031 (Simulation time: 0 hr 47 min 17 sec) 
Heartbeat CPU 0 instructions: 23000000 cycles: 10192622 heartbeat IPC: 1.88604 cumulative IPC: 2.07304 (Simulation time: 0 hr 49 min 38 sec) 
Heartbeat CPU 0 instructions: 24000000 cycles: 10620372 heartbeat IPC: 2.33781 cumulative IPC: 2.08995 (Simulation time: 0 hr 51 min 56 sec) 
Heartbeat CPU 0 instructions: 25000003 cycles: 11047689 heartbeat IPC: 2.34019 cumulative IPC: 2.10496 (Simulation time: 0 hr 54 min 12 sec) 
Heartbeat CPU 0 instructions: 26000003 cycles: 11472459 heartbeat IPC: 2.35422 cumulative IPC: 2.11898 (Simulation time: 0 hr 56 min 34 sec) 
Heartbeat CPU 0 instructions: 27000000 cycles: 11926641 heartbeat IPC: 2.20175 cumulative IPC: 2.12367 (Simulation time: 0 hr 58 min 57 sec) 
Heartbeat CPU 0 instructions: 28000000 cycles: 12551856 heartbeat IPC: 1.59945 cumulative IPC: 2.0857 (Simulation time: 1 hr 1 min 34 sec) 
Heartbeat CPU 0 instructions: 29000003 cycles: 13122860 heartbeat IPC: 1.75131 cumulative IPC: 2.06495 (Simulation time: 1 hr 4 min 10 sec) 
Heartbeat CPU 0 instructions: 30000003 cycles: 13704175 heartbeat IPC: 1.72024 cumulative IPC: 2.04446 (Simulation time: 1 hr 6 min 31 sec) 
Heartbeat CPU 0 instructions: 31000002 cycles: 14287099 heartbeat IPC: 1.71549 cumulative IPC: 2.02596 (Simulation time: 1 hr 8 min 54 sec) 
Heartbeat CPU 0 instructions: 32000000 cycles: 14843218 heartbeat IPC: 1.79817 cumulative IPC: 2.01436 (Simulation time: 1 hr 11 min 10 sec) 
Heartbeat CPU 0 instructions: 33000003 cycles: 15463039 heartbeat IPC: 1.61337 cumulative IPC: 1.99283 (Simulation time: 1 hr 13 min 38 sec) 
Heartbeat CPU 0 instructions: 34000002 cycles: 16147958 heartbeat IPC: 1.46003 cumulative IPC: 1.96298 (Simulation time: 1 hr 16 min 13 sec) 
Heartbeat CPU 0 instructions: 35000001 cycles: 16801590 heartbeat IPC: 1.52991 cumulative IPC: 1.941 (Simulation time: 1 hr 18 min 37 sec) 
Heartbeat CPU 0 instructions: 36000000 cycles: 17447700 heartbeat IPC: 1.54772 cumulative IPC: 1.92222 (Simulation time: 1 hr 20 min 57 sec) 
Heartbeat CPU 0 instructions: 37000002 cycles: 18096676 heartbeat IPC: 1.54089 cumulative IPC: 1.90476 (Simulation time: 1 hr 23 min 16 sec) 
Heartbeat CPU 0 instructions: 38000002 cycles: 18728979 heartbeat IPC: 1.58152 cumulative IPC: 1.89096 (Simulation time: 1 hr 25 min 16 sec) 
Heartbeat CPU 0 instructions: 39000002 cycles: 19444016 heartbeat IPC: 1.39853 cumulative IPC: 1.86827 (Simulation time: 1 hr 27 min 28 sec) 
Heartbeat CPU 0 instructions: 40000000 cycles: 19946491 heartbeat IPC: 1.99014 cumulative IPC: 1.87209 (Simulation time: 1 hr 29 min 18 sec) 
Heartbeat CPU 0 instructions: 41000003 cycles: 20433009 heartbeat IPC: 2.05543 cumulative IPC: 1.8775 (Simulation time: 1 hr 31 min 15 sec) 
Heartbeat CPU 0 instructions: 42000001 cycles: 20951805 heartbeat IPC: 1.92754 cumulative IPC: 1.87902 (Simulation time: 1 hr 33 min 20 sec) 
Heartbeat CPU 0 instructions: 43000001 cycles: 21480404 heartbeat IPC: 1.89179 cumulative IPC: 1.8794 (Simulation time: 1 hr 35 min 34 sec) 
Heartbeat CPU 0 instructions: 44000000 cycles: 22179223 heartbeat IPC: 1.43098 cumulative IPC: 1.86224 (Simulation time: 1 hr 37 min 39 sec) 
Heartbeat CPU 0 instructions: 45000002 cycles: 22643452 heartbeat IPC: 2.15411 cumulative IPC: 1.86948 (Simulation time: 1 hr 39 min 31 sec) 
Heartbeat CPU 0 instructions: 46000003 cycles: 23158277 heartbeat IPC: 1.94241 cumulative IPC: 1.87143 (Simulation time: 1 hr 41 min 27 sec) 
Heartbeat CPU 0 instructions: 47000000 cycles: 23665151 heartbeat IPC: 1.97287 cumulative IPC: 1.87403 (Simulation time: 1 hr 43 min 18 sec) 
Heartbeat CPU 0 instructions: 48000000 cycles: 24208285 heartbeat IPC: 1.84117 cumulative IPC: 1.87315 (Simulation time: 1 hr 45 min 10 sec) 
Heartbeat CPU 0 instructions: 49000000 cycles: 24655426 heartbeat IPC: 2.23643 cumulative IPC: 1.88099 (Simulation time: 1 hr 47 min 3 sec) 
Heartbeat CPU 0 instructions: 50000002 cycles: 25137828 heartbeat IPC: 2.07296 cumulative IPC: 1.88535 (Simulation time: 1 hr 49 min 11 sec) 
Heartbeat CPU 0 instructions: 51000001 cycles: 25616358 heartbeat IPC: 2.08973 cumulative IPC: 1.88986 (Simulation time: 1 hr 51 min 21 sec) 
Heartbeat CPU 0 instructions: 52000000 cycles: 26051986 heartbeat IPC: 2.29553 cumulative IPC: 1.89785 (Simulation time: 1 hr 53 min 32 sec) 
Heartbeat CPU 0 instructions: 53000002 cycles: 26583280 heartbeat IPC: 1.8822 cumulative IPC: 1.89748 (Simulation time: 1 hr 55 min 49 sec) 
Heartbeat CPU 0 instructions: 54000002 cycles: 27380441 heartbeat IPC: 1.25445 cumulative IPC: 1.87563 (Simulation time: 1 hr 58 min 16 sec) 
Heartbeat CPU 0 instructions: 55000002 cycles: 27912456 heartbeat IPC: 1.87965 cumulative IPC: 1.87572 (Simulation time: 2 hr 0 min 36 sec) 
Heartbeat CPU 0 instructions: 56000000 cycles: 28395926 heartbeat IPC: 2.06838 cumulative IPC: 1.87952 (Simulation time: 2 hr 2 min 43 sec) 
Heartbeat CPU 0 instructions: 57000000 cycles: 28936184 heartbeat IPC: 1.85097 cumulative IPC: 1.87891 (Simulation time: 2 hr 5 min 2 sec) 
Heartbeat CPU 0 instructions: 58000003 cycles: 29387056 heartbeat IPC: 2.21793 cumulative IPC: 1.88491 (Simulation time: 2 hr 7 min 17 sec) 
Heartbeat CPU 0 instructions: 59000001 cycles: 29919806 heartbeat IPC: 1.87705 cumulative IPC: 1.88475 (Simulation time: 2 hr 9 min 25 sec) 
Heartbeat CPU 0 instructions: 60000000 cycles: 30402342 heartbeat IPC: 2.07238 cumulative IPC: 1.88817 (Simulation time: 2 hr 11 min 41 sec) 
Heartbeat CPU 0 instructions: 61000002 cycles: 30917953 heartbeat IPC: 1.93945 cumulative IPC: 1.88915 (Simulation time: 2 hr 14 min 2 sec) 
Heartbeat CPU 0 instructions: 62000003 cycles: 31443271 heartbeat IPC: 1.90361 cumulative IPC: 1.88942 (Simulation time: 2 hr 16 min 15 sec) 
Heartbeat CPU 0 instructions: 63000003 cycles: 32131442 heartbeat IPC: 1.45313 cumulative IPC: 1.87878 (Simulation time: 2 hr 18 min 33 sec) 
Heartbeat CPU 0 instructions: 64000000 cycles: 32623290 heartbeat IPC: 2.03314 cumulative IPC: 1.88143 (Simulation time: 2 hr 20 min 50 sec) 
Heartbeat CPU 0 instructions: 65000001 cycles: 33154417 heartbeat IPC: 1.88279 cumulative IPC: 1.88145 (Simulation time: 2 hr 23 min 3 sec) 
Heartbeat CPU 0 instructions: 66000001 cycles: 33815351 heartbeat IPC: 1.51301 cumulative IPC: 1.8733 (Simulation time: 2 hr 25 min 24 sec) 
Heartbeat CPU 0 instructions: 67000003 cycles: 34405336 heartbeat IPC: 1.69496 cumulative IPC: 1.86985 (Simulation time: 2 hr 27 min 39 sec) 
Heartbeat CPU 0 instructions: 68000000 cycles: 34983742 heartbeat IPC: 1.72888 cumulative IPC: 1.86723 (Simulation time: 2 hr 29 min 59 sec) 
Heartbeat CPU 0 instructions: 69000001 cycles: 35555416 heartbeat IPC: 1.74925 cumulative IPC: 1.8651 (Simulation time: 2 hr 32 min 21 sec) 
Heartbeat CPU 0 instructions: 70000002 cycles: 36134384 heartbeat IPC: 1.72721 cumulative IPC: 1.86262 (Simulation time: 2 hr 34 min 42 sec) 
Heartbeat CPU 0 instructions: 71000003 cycles: 36706112 heartbeat IPC: 1.74909 cumulative IPC: 1.86064 (Simulation time: 2 hr 37 min 4 sec) 
Heartbeat CPU 0 instructions: 72000000 cycles: 37284406 heartbeat IPC: 1.72922 cumulative IPC: 1.85836 (Simulation time: 2 hr 39 min 35 sec) 
Heartbeat CPU 0 instructions: 73000000 cycles: 37861956 heartbeat IPC: 1.73145 cumulative IPC: 1.8562 (Simulation time: 2 hr 41 min 57 sec) 
Heartbeat CPU 0 instructions: 74000000 cycles: 38432456 heartbeat IPC: 1.75285 cumulative IPC: 1.85449 (Simulation time: 2 hr 44 min 20 sec) 
Heartbeat CPU 0 instructions: 75000000 cycles: 39068463 heartbeat IPC: 1.57231 cumulative IPC: 1.84939 (Simulation time: 2 hr 46 min 44 sec) 
Heartbeat CPU 0 instructions: 76000000 cycles: 39662002 heartbeat IPC: 1.68481 cumulative IPC: 1.84665 (Simulation time: 2 hr 49 min 0 sec) 
Heartbeat CPU 0 instructions: 77000003 cycles: 40255570 heartbeat IPC: 1.68473 cumulative IPC: 1.84401 (Simulation time: 2 hr 51 min 1 sec) 
Heartbeat CPU 0 instructions: 78000002 cycles: 40844318 heartbeat IPC: 1.69852 cumulative IPC: 1.84169 (Simulation time: 2 hr 53 min 26 sec) 
Heartbeat CPU 0 instructions: 79000001 cycles: 41428126 heartbeat IPC: 1.71289 cumulative IPC: 1.83968 (Simulation time: 2 hr 55 min 29 sec) 
Heartbeat CPU 0 instructions: 80000000 cycles: 42018253 heartbeat IPC: 1.69455 cumulative IPC: 1.83743 (Simulation time: 2 hr 57 min 35 sec) 
Heartbeat CPU 0 instructions: 81000001 cycles: 42604475 heartbeat IPC: 1.70584 cumulative IPC: 1.83544 (Simulation time: 3 hr 0 min 8 sec) 
Heartbeat CPU 0 instructions: 82000003 cycles: 43182928 heartbeat IPC: 1.72875 cumulative IPC: 1.83387 (Simulation time: 3 hr 2 min 19 sec) 
Heartbeat CPU 0 instructions: 83000003 cycles: 43763272 heartbeat IPC: 1.72312 cumulative IPC: 1.83225 (Simulation time: 3 hr 4 min 47 sec) 
Heartbeat CPU 0 instructions: 84000000 cycles: 44379481 heartbeat IPC: 1.62282 cumulative IPC: 1.82906 (Simulation time: 3 hr 7 min 16 sec) 
Heartbeat CPU 0 instructions: 85000002 cycles: 44929801 heartbeat IPC: 1.81713 cumulative IPC: 1.8289 (Simulation time: 3 hr 9 min 34 sec) 
Heartbeat CPU 0 instructions: 86000001 cycles: 45650286 heartbeat IPC: 1.38795 cumulative IPC: 1.82129 (Simulation time: 3 hr 12 min 20 sec) 
Heartbeat CPU 0 instructions: 87000003 cycles: 46233603 heartbeat IPC: 1.71434 cumulative IPC: 1.81982 (Simulation time: 3 hr 15 min 12 sec) 
Heartbeat CPU 0 instructions: 88000000 cycles: 46700057 heartbeat IPC: 2.14383 cumulative IPC: 1.82335 (Simulation time: 3 hr 17 min 18 sec) 
Heartbeat CPU 0 instructions: 89000000 cycles: 47163172 heartbeat IPC: 2.15929 cumulative IPC: 1.82695 (Simulation time: 3 hr 19 min 33 sec) 
Heartbeat CPU 0 instructions: 90000001 cycles: 47630982 heartbeat IPC: 2.13762 cumulative IPC: 1.83027 (Simulation time: 3 hr 21 min 57 sec) 
Heartbeat CPU 0 instructions: 91000002 cycles: 48179558 heartbeat IPC: 1.8229 cumulative IPC: 1.83018 (Simulation time: 3 hr 24 min 28 sec) 
Heartbeat CPU 0 instructions: 92000000 cycles: 48708533 heartbeat IPC: 1.89044 cumulative IPC: 1.83089 (Simulation time: 3 hr 26 min 52 sec) 
Heartbeat CPU 0 instructions: 93000000 cycles: 49239887 heartbeat IPC: 1.88198 cumulative IPC: 1.83149 (Simulation time: 3 hr 28 min 57 sec) 
Heartbeat CPU 0 instructions: 94000003 cycles: 49754798 heartbeat IPC: 1.94209 cumulative IPC: 1.83273 (Simulation time: 3 hr 31 min 4 sec) 
Heartbeat CPU 0 instructions: 95000003 cycles: 50304556 heartbeat IPC: 1.81898 cumulative IPC: 1.83257 (Simulation time: 3 hr 33 min 10 sec) 
Heartbeat CPU 0 instructions: 96000000 cycles: 50783863 heartbeat IPC: 2.08634 cumulative IPC: 1.83517 (Simulation time: 3 hr 35 min 26 sec) 
Heartbeat CPU 0 instructions: 97000002 cycles: 51276061 heartbeat IPC: 2.03171 cumulative IPC: 1.83721 (Simulation time: 3 hr 37 min 26 sec) 
Heartbeat CPU 0 instructions: 98000001 cycles: 51748623 heartbeat IPC: 2.11612 cumulative IPC: 1.83997 (Simulation time: 3 hr 39 min 38 sec) 
Heartbeat CPU 0 instructions: 99000001 cycles: 52295710 heartbeat IPC: 1.82786 cumulative IPC: 1.83983 (Simulation time: 3 hr 41 min 40 sec) 
Heartbeat CPU 0 instructions: 100000000 cycles: 52783982 heartbeat IPC: 2.04804 cumulative IPC: 1.84191 (Simulation time: 3 hr 43 min 51 sec) 
Heartbeat CPU 0 instructions: 101000001 cycles: 53270457 heartbeat IPC: 2.05561 cumulative IPC: 1.84402 (Simulation time: 3 hr 46 min 11 sec) 
Heartbeat CPU 0 instructions: 102000003 cycles: 53741993 heartbeat IPC: 2.12073 cumulative IPC: 1.84664 (Simulation time: 3 hr 48 min 23 sec) 
Heartbeat CPU 0 instructions: 103000003 cycles: 54277017 heartbeat IPC: 1.86908 cumulative IPC: 1.84687 (Simulation time: 3 hr 50 min 39 sec) 
Heartbeat CPU 0 instructions: 104000000 cycles: 54834799 heartbeat IPC: 1.79281 cumulative IPC: 1.84628 (Simulation time: 3 hr 52 min 48 sec) 
Heartbeat CPU 0 instructions: 105000001 cycles: 55261318 heartbeat IPC: 2.34456 cumulative IPC: 1.85042 (Simulation time: 3 hr 55 min 9 sec) 
Heartbeat CPU 0 instructions: 106000002 cycles: 55708283 heartbeat IPC: 2.23731 cumulative IPC: 1.85376 (Simulation time: 3 hr 57 min 18 sec) 
Heartbeat CPU 0 instructions: 107000001 cycles: 56160846 heartbeat IPC: 2.20964 cumulative IPC: 1.85684 (Simulation time: 3 hr 59 min 14 sec) 
Heartbeat CPU 0 instructions: 108000000 cycles: 56579663 heartbeat IPC: 2.38768 cumulative IPC: 1.86107 (Simulation time: 4 hr 1 min 11 sec) 
Heartbeat CPU 0 instructions: 109000000 cycles: 57057514 heartbeat IPC: 2.0927 cumulative IPC: 1.86315 (Simulation time: 4 hr 3 min 2 sec) 
Heartbeat CPU 0 instructions: 110000000 cycles: 57476226 heartbeat IPC: 2.38828 cumulative IPC: 1.86725 (Simulation time: 4 hr 4 min 51 sec) 
Finished CPU 0 instructions: 100000000 cycles: 53554577 cummulative IPC: 1.86725 (Simulation time: 4 hr 4 min 51 sec) 

ChampSim completed all CPUs

Region of Interest Statistics

CPU 0 cummulative IPC: 1.86725 instructions: 100000000 cycles: 53554577
LLC TOTAL     ACCESS:     865119  HIT:     394031  MISS:     471088
LLC LOAD      ACCESS:     110529  HIT:      92168  MISS:      18361
LLC RFO       ACCESS:        417  HIT:        416  MISS:          1
LLC PREFETCH  ACCESS:     655862  HIT:     224300  MISS:     431562
LLC WRITEBACK ACCESS:      98311  HIT:      77147  MISS:      21164
