
*** ChampSim Multicore Out-of-Order Simulator ***

Warmup Instructions: 10000000
Simulation Instructions: 100000000
Configuration: 2
Number of CPUs: 1
LLC sets: 2048
LLC ways: 16
Off-chip DRAM Channels: 1 Width: 64-bit Data Rate: 1600 MT/s

CPU 0 runs /datasets/cs240c-wi22-a00-public/data/Assignment2-gz/zeusmp_600B.trace.gz
CPU 0 L1D next line prefetcher
CPU 0 L2C IP-based stride prefetcher
config 2, num_core 1, llc_sets 2048
Heartbeat CPU 0 instructions: 1000000 cycles: 407346 heartbeat IPC: 2.45492 cumulative IPC: 2.45492 (Simulation time: 0 hr 2 min 29 sec) 
Heartbeat CPU 0 instructions: 2000001 cycles: 814285 heartbeat IPC: 2.45737 cumulative IPC: 2.45614 (Simulation time: 0 hr 4 min 45 sec) 
Heartbeat CPU 0 instructions: 3000000 cycles: 1221756 heartbeat IPC: 2.45416 cumulative IPC: 2.45548 (Simulation time: 0 hr 7 min 14 sec) 
Heartbeat CPU 0 instructions: 4000000 cycles: 1629400 heartbeat IPC: 2.45312 cumulative IPC: 2.45489 (Simulation time: 0 hr 9 min 38 sec) 
Heartbeat CPU 0 instructions: 5000001 cycles: 2036965 heartbeat IPC: 2.4536 cumulative IPC: 2.45463 (Simulation time: 0 hr 12 min 6 sec) 
Heartbeat CPU 0 instructions: 6000000 cycles: 2444289 heartbeat IPC: 2.45505 cumulative IPC: 2.4547 (Simulation time: 0 hr 14 min 35 sec) 
Heartbeat CPU 0 instructions: 7000000 cycles: 2851767 heartbeat IPC: 2.45412 cumulative IPC: 2.45462 (Simulation time: 0 hr 17 min 8 sec) 
Heartbeat CPU 0 instructions: 8000000 cycles: 3259368 heartbeat IPC: 2.45338 cumulative IPC: 2.45446 (Simulation time: 0 hr 19 min 48 sec) 
Heartbeat CPU 0 instructions: 9000003 cycles: 3666428 heartbeat IPC: 2.45665 cumulative IPC: 2.45471 (Simulation time: 0 hr 22 min 21 sec) 
Heartbeat CPU 0 instructions: 10000001 cycles: 4073921 heartbeat IPC: 2.45403 cumulative IPC: 2.45464 (Simulation time: 0 hr 24 min 59 sec) 

Warmup complete CPU 0 instructions: 10000001 cycles: 4073921 (Simulation time: 0 hr 24 min 59 sec) 

Heartbeat CPU 0 instructions: 11000000 cycles: 4749400 heartbeat IPC: 1.48043 cumulative IPC: 1.48043 (Simulation time: 0 hr 28 min 2 sec) 
Heartbeat CPU 0 instructions: 12000000 cycles: 5424347 heartbeat IPC: 1.4816 cumulative IPC: 1.48101 (Simulation time: 0 hr 30 min 43 sec) 
Heartbeat CPU 0 instructions: 13000001 cycles: 6101702 heartbeat IPC: 1.47633 cumulative IPC: 1.47945 (Simulation time: 0 hr 33 min 41 sec) 
Heartbeat CPU 0 instructions: 14000001 cycles: 6776443 heartbeat IPC: 1.48205 cumulative IPC: 1.4801 (Simulation time: 0 hr 36 min 15 sec) 
Heartbeat CPU 0 instructions: 15000003 cycles: 7453485 heartbeat IPC: 1.47702 cumulative IPC: 1.47948 (Simulation time: 0 hr 38 min 54 sec) 
Heartbeat CPU 0 instructions: 16000000 cycles: 8176559 heartbeat IPC: 1.38298 cumulative IPC: 1.46247 (Simulation time: 0 hr 41 min 33 sec) 
Heartbeat CPU 0 instructions: 17000001 cycles: 8957732 heartbeat IPC: 1.28013 cumulative IPC: 1.43331 (Simulation time: 0 hr 44 min 6 sec) 
Heartbeat CPU 0 instructions: 18000003 cycles: 9732630 heartbeat IPC: 1.2905 cumulative IPC: 1.41375 (Simulation time: 0 hr 46 min 40 sec) 
Heartbeat CPU 0 instructions: 19000000 cycles: 10511294 heartbeat IPC: 1.28425 cumulative IPC: 1.39809 (Simulation time: 0 hr 49 min 21 sec) 
Heartbeat CPU 0 instructions: 20000000 cycles: 11285294 heartbeat IPC: 1.29199 cumulative IPC: 1.3867 (Simulation time: 0 hr 52 min 4 sec) 
Heartbeat CPU 0 instructions: 21000002 cycles: 12062258 heartbeat IPC: 1.28706 cumulative IPC: 1.37701 (Simulation time: 0 hr 54 min 39 sec) 
Heartbeat CPU 0 instructions: 22000000 cycles: 12835695 heartbeat IPC: 1.29293 cumulative IPC: 1.36959 (Simulation time: 0 hr 57 min 12 sec) 
Heartbeat CPU 0 instructions: 23000000 cycles: 13609777 heartbeat IPC: 1.29185 cumulative IPC: 1.36328 (Simulation time: 0 hr 59 min 47 sec) 
Heartbeat CPU 0 instructions: 24000000 cycles: 14386687 heartbeat IPC: 1.28715 cumulative IPC: 1.35754 (Simulation time: 1 hr 2 min 23 sec) 
Heartbeat CPU 0 instructions: 25000000 cycles: 15149421 heartbeat IPC: 1.31107 cumulative IPC: 1.35434 (Simulation time: 1 hr 5 min 5 sec) 
Heartbeat CPU 0 instructions: 26000000 cycles: 15924883 heartbeat IPC: 1.28955 cumulative IPC: 1.3501 (Simulation time: 1 hr 7 min 47 sec) 
Heartbeat CPU 0 instructions: 27000003 cycles: 16694134 heartbeat IPC: 1.29997 cumulative IPC: 1.34705 (Simulation time: 1 hr 10 min 20 sec) 
Heartbeat CPU 0 instructions: 28000000 cycles: 17476450 heartbeat IPC: 1.27825 cumulative IPC: 1.34303 (Simulation time: 1 hr 12 min 57 sec) 
Heartbeat CPU 0 instructions: 29000000 cycles: 18253271 heartbeat IPC: 1.2873 cumulative IPC: 1.33998 (Simulation time: 1 hr 15 min 33 sec) 
Heartbeat CPU 0 instructions: 30000003 cycles: 19029810 heartbeat IPC: 1.28777 cumulative IPC: 1.33727 (Simulation time: 1 hr 18 min 4 sec) 
Heartbeat CPU 0 instructions: 31000002 cycles: 19813035 heartbeat IPC: 1.27677 cumulative IPC: 1.33426 (Simulation time: 1 hr 20 min 24 sec) 
Heartbeat CPU 0 instructions: 32000000 cycles: 20584677 heartbeat IPC: 1.29594 cumulative IPC: 1.33246 (Simulation time: 1 hr 22 min 59 sec) 
Heartbeat CPU 0 instructions: 33000001 cycles: 21366458 heartbeat IPC: 1.27913 cumulative IPC: 1.33005 (Simulation time: 1 hr 25 min 7 sec) 
Heartbeat CPU 0 instructions: 34000000 cycles: 22145541 heartbeat IPC: 1.28356 cumulative IPC: 1.32805 (Simulation time: 1 hr 27 min 27 sec) 
Heartbeat CPU 0 instructions: 35000000 cycles: 22922635 heartbeat IPC: 1.28685 cumulative IPC: 1.32635 (Simulation time: 1 hr 30 min 0 sec) 
Heartbeat CPU 0 instructions: 36000000 cycles: 23692291 heartbeat IPC: 1.29928 cumulative IPC: 1.32529 (Simulation time: 1 hr 32 min 40 sec) 
Heartbeat CPU 0 instructions: 37000001 cycles: 24469090 heartbeat IPC: 1.28734 cumulative IPC: 1.32384 (Simulation time: 1 hr 34 min 56 sec) 
Heartbeat CPU 0 instructions: 38000001 cycles: 25251049 heartbeat IPC: 1.27884 cumulative IPC: 1.32218 (Simulation time: 1 hr 37 min 15 sec) 
Heartbeat CPU 0 instructions: 39000002 cycles: 26027755 heartbeat IPC: 1.28749 cumulative IPC: 1.32095 (Simulation time: 1 hr 39 min 40 sec) 
Heartbeat CPU 0 instructions: 40000000 cycles: 26806166 heartbeat IPC: 1.28467 cumulative IPC: 1.31971 (Simulation time: 1 hr 41 min 57 sec) 
Heartbeat CPU 0 instructions: 41000002 cycles: 27583328 heartbeat IPC: 1.28674 cumulative IPC: 1.31862 (Simulation time: 1 hr 44 min 25 sec) 
Heartbeat CPU 0 instructions: 42000000 cycles: 28359208 heartbeat IPC: 1.28886 cumulative IPC: 1.31767 (Simulation time: 1 hr 47 min 1 sec) 
Heartbeat CPU 0 instructions: 43000002 cycles: 29135927 heartbeat IPC: 1.28747 cumulative IPC: 1.31673 (Simulation time: 1 hr 49 min 36 sec) 
Heartbeat CPU 0 instructions: 44000000 cycles: 29910097 heartbeat IPC: 1.2917 cumulative IPC: 1.31598 (Simulation time: 1 hr 52 min 11 sec) 
Heartbeat CPU 0 instructions: 45000003 cycles: 30681020 heartbeat IPC: 1.29715 cumulative IPC: 1.31544 (Simulation time: 1 hr 55 min 9 sec) 
Heartbeat CPU 0 instructions: 46000000 cycles: 31462424 heartbeat IPC: 1.27974 cumulative IPC: 1.31442 (Simulation time: 1 hr 57 min 48 sec) 
Heartbeat CPU 0 instructions: 47000001 cycles: 32247410 heartbeat IPC: 1.27391 cumulative IPC: 1.31329 (Simulation time: 2 hr 0 min 22 sec) 
Heartbeat CPU 0 instructions: 48000000 cycles: 33023596 heartbeat IPC: 1.28835 cumulative IPC: 1.31262 (Simulation time: 2 hr 2 min 42 sec) 
Heartbeat CPU 0 instructions: 49000000 cycles: 33813694 heartbeat IPC: 1.26567 cumulative IPC: 1.31138 (Simulation time: 2 hr 5 min 25 sec) 
Heartbeat CPU 0 instructions: 50000000 cycles: 34585967 heartbeat IPC: 1.29488 cumulative IPC: 1.31096 (Simulation time: 2 hr 8 min 8 sec) 
Heartbeat CPU 0 instructions: 51000001 cycles: 35364387 heartbeat IPC: 1.28465 cumulative IPC: 1.3103 (Simulation time: 2 hr 10 min 54 sec) 
Heartbeat CPU 0 instructions: 52000000 cycles: 36148587 heartbeat IPC: 1.27518 cumulative IPC: 1.30944 (Simulation time: 2 hr 13 min 52 sec) 
Heartbeat CPU 0 instructions: 53000001 cycles: 36929921 heartbeat IPC: 1.27986 cumulative IPC: 1.30874 (Simulation time: 2 hr 16 min 32 sec) 
Heartbeat CPU 0 instructions: 54000000 cycles: 37701581 heartbeat IPC: 1.29591 cumulative IPC: 1.30845 (Simulation time: 2 hr 19 min 13 sec) 
Heartbeat CPU 0 instructions: 55000001 cycles: 38469903 heartbeat IPC: 1.30154 cumulative IPC: 1.30829 (Simulation time: 2 hr 22 min 6 sec) 
Heartbeat CPU 0 instructions: 56000000 cycles: 39243785 heartbeat IPC: 1.29219 cumulative IPC: 1.30794 (Simulation time: 2 hr 24 min 57 sec) 
Heartbeat CPU 0 instructions: 57000003 cycles: 40026665 heartbeat IPC: 1.27734 cumulative IPC: 1.30727 (Simulation time: 2 hr 27 min 40 sec) 
Heartbeat CPU 0 instructions: 58000001 cycles: 40792787 heartbeat IPC: 1.30527 cumulative IPC: 1.30723 (Simulation time: 2 hr 30 min 48 sec) 
Heartbeat CPU 0 instructions: 59000000 cycles: 41575424 heartbeat IPC: 1.27773 cumulative IPC: 1.30661 (Simulation time: 2 hr 33 min 59 sec) 
Heartbeat CPU 0 instructions: 60000000 cycles: 42348630 heartbeat IPC: 1.29332 cumulative IPC: 1.30635 (Simulation time: 2 hr 37 min 7 sec) 
Heartbeat CPU 0 instructions: 61000003 cycles: 43122770 heartbeat IPC: 1.29176 cumulative IPC: 1.30606 (Simulation time: 2 hr 40 min 8 sec) 
Heartbeat CPU 0 instructions: 62000001 cycles: 43901426 heartbeat IPC: 1.28426 cumulative IPC: 1.30563 (Simulation time: 2 hr 43 min 10 sec) 
Heartbeat CPU 0 instructions: 63000000 cycles: 44679054 heartbeat IPC: 1.28596 cumulative IPC: 1.30525 (Simulation time: 2 hr 45 min 46 sec) 
Heartbeat CPU 0 instructions: 64000000 cycles: 45452861 heartbeat IPC: 1.29231 cumulative IPC: 1.30501 (Simulation time: 2 hr 48 min 38 sec) 
Heartbeat CPU 0 instructions: 65000001 cycles: 46235945 heartbeat IPC: 1.277 cumulative IPC: 1.30449 (Simulation time: 2 hr 51 min 26 sec) 
Heartbeat CPU 0 instructions: 66000000 cycles: 47021384 heartbeat IPC: 1.27317 cumulative IPC: 1.30392 (Simulation time: 2 hr 54 min 9 sec) 
Heartbeat CPU 0 instructions: 67000001 cycles: 47804747 heartbeat IPC: 1.27655 cumulative IPC: 1.30343 (Simulation time: 2 hr 56 min 39 sec) 
Heartbeat CPU 0 instructions: 68000000 cycles: 48580164 heartbeat IPC: 1.28963 cumulative IPC: 1.30319 (Simulation time: 2 hr 59 min 2 sec) 
Heartbeat CPU 0 instructions: 69000002 cycles: 49385404 heartbeat IPC: 1.24187 cumulative IPC: 1.3021 (Simulation time: 3 hr 1 min 40 sec) 
Heartbeat CPU 0 instructions: 70000000 cycles: 50162262 heartbeat IPC: 1.28723 cumulative IPC: 1.30185 (Simulation time: 3 hr 4 min 9 sec) 
Heartbeat CPU 0 instructions: 71000001 cycles: 50941542 heartbeat IPC: 1.28324 cumulative IPC: 1.30154 (Simulation time: 3 hr 6 min 51 sec) 
Heartbeat CPU 0 instructions: 72000000 cycles: 51715364 heartbeat IPC: 1.29229 cumulative IPC: 1.30139 (Simulation time: 3 hr 9 min 29 sec) 
Heartbeat CPU 0 instructions: 73000003 cycles: 52491207 heartbeat IPC: 1.28892 cumulative IPC: 1.30119 (Simulation time: 3 hr 12 min 4 sec) 
Heartbeat CPU 0 instructions: 74000002 cycles: 53267326 heartbeat IPC: 1.28846 cumulative IPC: 1.30099 (Simulation time: 3 hr 14 min 37 sec) 
Heartbeat CPU 0 instructions: 75000003 cycles: 54047193 heartbeat IPC: 1.28227 cumulative IPC: 1.3007 (Simulation time: 3 hr 17 min 9 sec) 
Heartbeat CPU 0 instructions: 76000000 cycles: 54822855 heartbeat IPC: 1.28922 cumulative IPC: 1.30052 (Simulation time: 3 hr 19 min 49 sec) 
Heartbeat CPU 0 instructions: 77000000 cycles: 55600214 heartbeat IPC: 1.28641 cumulative IPC: 1.30031 (Simulation time: 3 hr 22 min 52 sec) 
Heartbeat CPU 0 instructions: 78000003 cycles: 56382751 heartbeat IPC: 1.2779 cumulative IPC: 1.29997 (Simulation time: 3 hr 25 min 47 sec) 
Heartbeat CPU 0 instructions: 79000000 cycles: 57158367 heartbeat IPC: 1.28929 cumulative IPC: 1.29982 (Simulation time: 3 hr 28 min 59 sec) 
Heartbeat CPU 0 instructions: 80000000 cycles: 57934967 heartbeat IPC: 1.28766 cumulative IPC: 1.29964 (Simulation time: 3 hr 32 min 16 sec) 
Heartbeat CPU 0 instructions: 81000002 cycles: 58712960 heartbeat IPC: 1.28536 cumulative IPC: 1.29944 (Simulation time: 3 hr 35 min 29 sec) 
Heartbeat CPU 0 instructions: 82000002 cycles: 59488722 heartbeat IPC: 1.28906 cumulative IPC: 1.29929 (Simulation time: 3 hr 38 min 43 sec) 
Heartbeat CPU 0 instructions: 83000001 cycles: 60257749 heartbeat IPC: 1.30034 cumulative IPC: 1.29931 (Simulation time: 3 hr 41 min 30 sec) 
Heartbeat CPU 0 instructions: 84000000 cycles: 61037514 heartbeat IPC: 1.28244 cumulative IPC: 1.29908 (Simulation time: 3 hr 44 min 18 sec) 
Heartbeat CPU 0 instructions: 85000002 cycles: 61822729 heartbeat IPC: 1.27354 cumulative IPC: 1.29873 (Simulation time: 3 hr 47 min 13 sec) 
Heartbeat CPU 0 instructions: 86000002 cycles: 62596310 heartbeat IPC: 1.29269 cumulative IPC: 1.29865 (Simulation time: 3 hr 49 min 56 sec) 
Heartbeat CPU 0 instructions: 87000000 cycles: 63373975 heartbeat IPC: 1.2859 cumulative IPC: 1.29848 (Simulation time: 3 hr 52 min 33 sec) 
Heartbeat CPU 0 instructions: 88000000 cycles: 64150377 heartbeat IPC: 1.28799 cumulative IPC: 1.29835 (Simulation time: 3 hr 55 min 6 sec) 
Heartbeat CPU 0 instructions: 89000002 cycles: 64926497 heartbeat IPC: 1.28846 cumulative IPC: 1.29822 (Simulation time: 3 hr 57 min 58 sec) 
Heartbeat CPU 0 instructions: 90000002 cycles: 65694590 heartbeat IPC: 1.30193 cumulative IPC: 1.29827 (Simulation time: 4 hr 0 min 38 sec) 
Heartbeat CPU 0 instructions: 91000001 cycles: 66469657 heartbeat IPC: 1.29021 cumulative IPC: 1.29817 (Simulation time: 4 hr 3 min 18 sec) 
Heartbeat CPU 0 instructions: 92000000 cycles: 67254652 heartbeat IPC: 1.27389 cumulative IPC: 1.29786 (Simulation time: 4 hr 5 min 51 sec) 
Heartbeat CPU 0 instructions: 93000000 cycles: 68023374 heartbeat IPC: 1.30086 cumulative IPC: 1.2979 (Simulation time: 4 hr 8 min 14 sec) 
Heartbeat CPU 0 instructions: 94000002 cycles: 68799057 heartbeat IPC: 1.28919 cumulative IPC: 1.2978 (Simulation time: 4 hr 10 min 53 sec) 
Heartbeat CPU 0 instructions: 95000001 cycles: 69581435 heartbeat IPC: 1.27815 cumulative IPC: 1.29756 (Simulation time: 4 hr 13 min 32 sec) 
Heartbeat CPU 0 instructions: 96000000 cycles: 70359957 heartbeat IPC: 1.28448 cumulative IPC: 1.29741 (Simulation time: 4 hr 15 min 51 sec) 
Heartbeat CPU 0 instructions: 97000003 cycles: 71128366 heartbeat IPC: 1.30139 cumulative IPC: 1.29745 (Simulation time: 4 hr 18 min 3 sec) 
Heartbeat CPU 0 instructions: 98000002 cycles: 71911492 heartbeat IPC: 1.27693 cumulative IPC: 1.29722 (Simulation time: 4 hr 20 min 1 sec) 
Heartbeat CPU 0 instructions: 99000000 cycles: 72692723 heartbeat IPC: 1.28003 cumulative IPC: 1.29702 (Simulation time: 4 hr 22 min 8 sec) 
Heartbeat CPU 0 instructions: 100000000 cycles: 73465343 heartbeat IPC: 1.2943 cumulative IPC: 1.29699 (Simulation time: 4 hr 23 min 57 sec) 
Heartbeat CPU 0 instructions: 101000002 cycles: 74240233 heartbeat IPC: 1.29051 cumulative IPC: 1.29692 (Simulation time: 4 hr 25 min 43 sec) 
Heartbeat CPU 0 instructions: 102000002 cycles: 75026520 heartbeat IPC: 1.2718 cumulative IPC: 1.29664 (Simulation time: 4 hr 27 min 20 sec) 
Heartbeat CPU 0 instructions: 103000001 cycles: 75804319 heartbeat IPC: 1.28568 cumulative IPC: 1.29652 (Simulation time: 4 hr 28 min 51 sec) 
Heartbeat CPU 0 instructions: 104000000 cycles: 76581474 heartbeat IPC: 1.28674 cumulative IPC: 1.29642 (Simulation time: 4 hr 30 min 21 sec) 
Heartbeat CPU 0 instructions: 105000001 cycles: 77360908 heartbeat IPC: 1.28298 cumulative IPC: 1.29627 (Simulation time: 4 hr 31 min 51 sec) 
Heartbeat CPU 0 instructions: 106000000 cycles: 78140944 heartbeat IPC: 1.28199 cumulative IPC: 1.29612 (Simulation time: 4 hr 33 min 19 sec) 
Heartbeat CPU 0 instructions: 107000000 cycles: 78918580 heartbeat IPC: 1.28595 cumulative IPC: 1.29602 (Simulation time: 4 hr 34 min 38 sec) 
Heartbeat CPU 0 instructions: 108000000 cycles: 79700431 heartbeat IPC: 1.27902 cumulative IPC: 1.29584 (Simulation time: 4 hr 35 min 57 sec) 
Heartbeat CPU 0 instructions: 109000000 cycles: 80481374 heartbeat IPC: 1.2805 cumulative IPC: 1.29569 (Simulation time: 4 hr 37 min 12 sec) 
Heartbeat CPU 0 instructions: 110000002 cycles: 81260395 heartbeat IPC: 1.28367 cumulative IPC: 1.29556 (Simulation time: 4 hr 38 min 26 sec) 
Finished CPU 0 instructions: 100000001 cycles: 77186474 cummulative IPC: 1.29556 (Simulation time: 4 hr 38 min 26 sec) 

ChampSim completed all CPUs

Region of Interest Statistics

CPU 0 cummulative IPC: 1.29556 instructions: 100000001 cycles: 77186474
LLC TOTAL     ACCESS:     382564  HIT:       4973  MISS:     377591
LLC LOAD      ACCESS:      27988  HIT:        571  MISS:      27417
LLC RFO       ACCESS:       3434  HIT:          0  MISS:       3434
LLC PREFETCH  ACCESS:     287908  HIT:       3291  MISS:     284617
LLC WRITEBACK ACCESS:      63234  HIT:       1111  MISS:      62123
