
*** ChampSim Multicore Out-of-Order Simulator ***

Warmup Instructions: 10000000
Simulation Instructions: 100000000
Configuration: 2
Number of CPUs: 1
LLC sets: 2048
LLC ways: 16
Off-chip DRAM Channels: 1 Width: 64-bit Data Rate: 1600 MT/s

CPU 0 runs /datasets/cs240c-wi22-a00-public/data/Assignment2-gz/astar_313B.trace.gz
CPU 0 L1D next line prefetcher
CPU 0 L2C IP-based stride prefetcher
config 2, num_core 1, llc_sets 2048
Heartbeat CPU 0 instructions: 1000001 cycles: 675836 heartbeat IPC: 1.47965 cumulative IPC: 1.47965 (Simulation time: 0 hr 3 min 12 sec) 
Heartbeat CPU 0 instructions: 2000003 cycles: 1263228 heartbeat IPC: 1.70244 cumulative IPC: 1.58325 (Simulation time: 0 hr 6 min 9 sec) 
Heartbeat CPU 0 instructions: 3000003 cycles: 1937825 heartbeat IPC: 1.48237 cumulative IPC: 1.54813 (Simulation time: 0 hr 9 min 22 sec) 
Heartbeat CPU 0 instructions: 4000000 cycles: 2612188 heartbeat IPC: 1.48288 cumulative IPC: 1.53128 (Simulation time: 0 hr 12 min 22 sec) 
Heartbeat CPU 0 instructions: 5000002 cycles: 3286496 heartbeat IPC: 1.483 cumulative IPC: 1.52138 (Simulation time: 0 hr 15 min 11 sec) 
Heartbeat CPU 0 instructions: 6000001 cycles: 3873419 heartbeat IPC: 1.7038 cumulative IPC: 1.54902 (Simulation time: 0 hr 18 min 6 sec) 
Heartbeat CPU 0 instructions: 7000000 cycles: 4442249 heartbeat IPC: 1.75799 cumulative IPC: 1.57578 (Simulation time: 0 hr 21 min 18 sec) 
Heartbeat CPU 0 instructions: 8000000 cycles: 4994012 heartbeat IPC: 1.81237 cumulative IPC: 1.60192 (Simulation time: 0 hr 24 min 17 sec) 
Heartbeat CPU 0 instructions: 9000001 cycles: 5555722 heartbeat IPC: 1.78028 cumulative IPC: 1.61995 (Simulation time: 0 hr 27 min 29 sec) 
Heartbeat CPU 0 instructions: 10000002 cycles: 6230705 heartbeat IPC: 1.48152 cumulative IPC: 1.60496 (Simulation time: 0 hr 30 min 21 sec) 

Warmup complete CPU 0 instructions: 10000002 cycles: 6230705 (Simulation time: 0 hr 30 min 21 sec) 

Heartbeat CPU 0 instructions: 11000000 cycles: 12678955 heartbeat IPC: 0.155081 cumulative IPC: 0.155081 (Simulation time: 0 hr 33 min 31 sec) 
Heartbeat CPU 0 instructions: 12000000 cycles: 19330456 heartbeat IPC: 0.150342 cumulative IPC: 0.152675 (Simulation time: 0 hr 36 min 49 sec) 
Heartbeat CPU 0 instructions: 13000003 cycles: 27733204 heartbeat IPC: 0.119009 cumulative IPC: 0.139519 (Simulation time: 0 hr 40 min 3 sec) 
Heartbeat CPU 0 instructions: 14000002 cycles: 33803043 heartbeat IPC: 0.164749 cumulative IPC: 0.145073 (Simulation time: 0 hr 42 min 57 sec) 
Heartbeat CPU 0 instructions: 15000000 cycles: 40045288 heartbeat IPC: 0.160198 cumulative IPC: 0.147865 (Simulation time: 0 hr 46 min 5 sec) 
Heartbeat CPU 0 instructions: 16000000 cycles: 46107486 heartbeat IPC: 0.164957 cumulative IPC: 0.150463 (Simulation time: 0 hr 48 min 57 sec) 
Heartbeat CPU 0 instructions: 17000001 cycles: 52270875 heartbeat IPC: 0.162249 cumulative IPC: 0.152041 (Simulation time: 0 hr 51 min 52 sec) 
Heartbeat CPU 0 instructions: 18000000 cycles: 61069523 heartbeat IPC: 0.113654 cumulative IPC: 0.145882 (Simulation time: 0 hr 55 min 28 sec) 
Heartbeat CPU 0 instructions: 19000000 cycles: 67014246 heartbeat IPC: 0.168216 cumulative IPC: 0.148066 (Simulation time: 0 hr 58 min 33 sec) 
Heartbeat CPU 0 instructions: 20000000 cycles: 73337233 heartbeat IPC: 0.158153 cumulative IPC: 0.149017 (Simulation time: 1 hr 1 min 32 sec) 
Heartbeat CPU 0 instructions: 21000002 cycles: 81732719 heartbeat IPC: 0.119112 cumulative IPC: 0.145691 (Simulation time: 1 hr 4 min 39 sec) 
Heartbeat CPU 0 instructions: 22000002 cycles: 88714873 heartbeat IPC: 0.143222 cumulative IPC: 0.145482 (Simulation time: 1 hr 8 min 0 sec) 
Heartbeat CPU 0 instructions: 23000002 cycles: 94437561 heartbeat IPC: 0.174743 cumulative IPC: 0.147381 (Simulation time: 1 hr 10 min 56 sec) 
Heartbeat CPU 0 instructions: 24000000 cycles: 101012073 heartbeat IPC: 0.152102 cumulative IPC: 0.147708 (Simulation time: 1 hr 13 min 55 sec) 
Heartbeat CPU 0 instructions: 25000001 cycles: 108766753 heartbeat IPC: 0.128955 cumulative IPC: 0.14629 (Simulation time: 1 hr 17 min 18 sec) 
Heartbeat CPU 0 instructions: 26000002 cycles: 115087406 heartbeat IPC: 0.158212 cumulative IPC: 0.146982 (Simulation time: 1 hr 20 min 18 sec) 
Heartbeat CPU 0 instructions: 27000003 cycles: 124205534 heartbeat IPC: 0.109672 cumulative IPC: 0.144099 (Simulation time: 1 hr 24 min 16 sec) 
Heartbeat CPU 0 instructions: 28000000 cycles: 130044430 heartbeat IPC: 0.171265 cumulative IPC: 0.14538 (Simulation time: 1 hr 27 min 36 sec) 
Heartbeat CPU 0 instructions: 29000001 cycles: 138642923 heartbeat IPC: 0.1163 cumulative IPC: 0.143491 (Simulation time: 1 hr 31 min 24 sec) 
Heartbeat CPU 0 instructions: 30000001 cycles: 144605959 heartbeat IPC: 0.1677 cumulative IPC: 0.144535 (Simulation time: 1 hr 34 min 45 sec) 
Heartbeat CPU 0 instructions: 31000002 cycles: 150571909 heartbeat IPC: 0.167618 cumulative IPC: 0.145489 (Simulation time: 1 hr 38 min 22 sec) 
Heartbeat CPU 0 instructions: 32000000 cycles: 156132771 heartbeat IPC: 0.179828 cumulative IPC: 0.146762 (Simulation time: 1 hr 41 min 33 sec) 
Heartbeat CPU 0 instructions: 33000000 cycles: 161708509 heartbeat IPC: 0.179348 cumulative IPC: 0.147931 (Simulation time: 1 hr 44 min 59 sec) 
Heartbeat CPU 0 instructions: 34000000 cycles: 170190218 heartbeat IPC: 0.117901 cumulative IPC: 0.146378 (Simulation time: 1 hr 48 min 35 sec) 
Heartbeat CPU 0 instructions: 35000000 cycles: 176035107 heartbeat IPC: 0.17109 cumulative IPC: 0.147228 (Simulation time: 1 hr 51 min 37 sec) 
Heartbeat CPU 0 instructions: 36000000 cycles: 182244500 heartbeat IPC: 0.161046 cumulative IPC: 0.147716 (Simulation time: 1 hr 54 min 34 sec) 
Heartbeat CPU 0 instructions: 37000002 cycles: 190935275 heartbeat IPC: 0.115065 cumulative IPC: 0.146179 (Simulation time: 1 hr 58 min 1 sec) 
Heartbeat CPU 0 instructions: 38000000 cycles: 196723799 heartbeat IPC: 0.172755 cumulative IPC: 0.146987 (Simulation time: 2 hr 0 min 56 sec) 
Heartbeat CPU 0 instructions: 39000001 cycles: 205297005 heartbeat IPC: 0.116643 cumulative IPC: 0.14568 (Simulation time: 2 hr 4 min 31 sec) 
Heartbeat CPU 0 instructions: 40000000 cycles: 213734444 heartbeat IPC: 0.118519 cumulative IPC: 0.144576 (Simulation time: 2 hr 7 min 56 sec) 
Heartbeat CPU 0 instructions: 41000001 cycles: 219624421 heartbeat IPC: 0.16978 cumulative IPC: 0.145271 (Simulation time: 2 hr 11 min 0 sec) 
Heartbeat CPU 0 instructions: 42000003 cycles: 226587116 heartbeat IPC: 0.143623 cumulative IPC: 0.145219 (Simulation time: 2 hr 14 min 4 sec) 
Heartbeat CPU 0 instructions: 43000002 cycles: 235855024 heartbeat IPC: 0.107899 cumulative IPC: 0.143713 (Simulation time: 2 hr 17 min 31 sec) 
Heartbeat CPU 0 instructions: 44000000 cycles: 241278532 heartbeat IPC: 0.184382 cumulative IPC: 0.144651 (Simulation time: 2 hr 20 min 24 sec) 
Heartbeat CPU 0 instructions: 45000000 cycles: 247360742 heartbeat IPC: 0.164414 cumulative IPC: 0.14515 (Simulation time: 2 hr 23 min 16 sec) 
Heartbeat CPU 0 instructions: 46000002 cycles: 253749517 heartbeat IPC: 0.156525 cumulative IPC: 0.145443 (Simulation time: 2 hr 25 min 53 sec) 
Heartbeat CPU 0 instructions: 47000000 cycles: 260303670 heartbeat IPC: 0.152575 cumulative IPC: 0.145627 (Simulation time: 2 hr 28 min 33 sec) 
Heartbeat CPU 0 instructions: 48000000 cycles: 268581078 heartbeat IPC: 0.120811 cumulative IPC: 0.144844 (Simulation time: 2 hr 31 min 45 sec) 
Heartbeat CPU 0 instructions: 49000000 cycles: 274038563 heartbeat IPC: 0.183235 cumulative IPC: 0.145627 (Simulation time: 2 hr 34 min 34 sec) 
Heartbeat CPU 0 instructions: 50000000 cycles: 279871743 heartbeat IPC: 0.171433 cumulative IPC: 0.146177 (Simulation time: 2 hr 37 min 30 sec) 
Heartbeat CPU 0 instructions: 51000000 cycles: 286613797 heartbeat IPC: 0.148323 cumulative IPC: 0.146228 (Simulation time: 2 hr 40 min 32 sec) 
Heartbeat CPU 0 instructions: 52000000 cycles: 294402124 heartbeat IPC: 0.128397 cumulative IPC: 0.145747 (Simulation time: 2 hr 43 min 50 sec) 
Heartbeat CPU 0 instructions: 53000000 cycles: 300692627 heartbeat IPC: 0.15897 cumulative IPC: 0.146029 (Simulation time: 2 hr 46 min 30 sec) 
Heartbeat CPU 0 instructions: 54000000 cycles: 308203472 heartbeat IPC: 0.133141 cumulative IPC: 0.145709 (Simulation time: 2 hr 49 min 25 sec) 
Heartbeat CPU 0 instructions: 55000001 cycles: 316262391 heartbeat IPC: 0.124086 cumulative IPC: 0.145146 (Simulation time: 2 hr 52 min 27 sec) 
Heartbeat CPU 0 instructions: 56000000 cycles: 325959057 heartbeat IPC: 0.103128 cumulative IPC: 0.143872 (Simulation time: 2 hr 55 min 46 sec) 
Heartbeat CPU 0 instructions: 57000000 cycles: 331699751 heartbeat IPC: 0.174195 cumulative IPC: 0.144407 (Simulation time: 2 hr 58 min 37 sec) 
Heartbeat CPU 0 instructions: 58000001 cycles: 337999507 heartbeat IPC: 0.158736 cumulative IPC: 0.144679 (Simulation time: 3 hr 1 min 22 sec) 
Heartbeat CPU 0 instructions: 59000002 cycles: 346246714 heartbeat IPC: 0.121253 cumulative IPC: 0.144111 (Simulation time: 3 hr 4 min 16 sec) 
Heartbeat CPU 0 instructions: 60000000 cycles: 353409917 heartbeat IPC: 0.139602 cumulative IPC: 0.144018 (Simulation time: 3 hr 7 min 15 sec) 
Heartbeat CPU 0 instructions: 61000001 cycles: 359467303 heartbeat IPC: 0.165088 cumulative IPC: 0.144379 (Simulation time: 3 hr 10 min 17 sec) 
Heartbeat CPU 0 instructions: 62000001 cycles: 365586077 heartbeat IPC: 0.163431 cumulative IPC: 0.144704 (Simulation time: 3 hr 13 min 3 sec) 
Heartbeat CPU 0 instructions: 63000000 cycles: 371978840 heartbeat IPC: 0.156427 cumulative IPC: 0.144908 (Simulation time: 3 hr 15 min 54 sec) 
Heartbeat CPU 0 instructions: 64000000 cycles: 380547146 heartbeat IPC: 0.116709 cumulative IPC: 0.144263 (Simulation time: 3 hr 18 min 52 sec) 
Heartbeat CPU 0 instructions: 65000000 cycles: 386871629 heartbeat IPC: 0.158116 cumulative IPC: 0.144493 (Simulation time: 3 hr 21 min 33 sec) 
Heartbeat CPU 0 instructions: 66000001 cycles: 393092355 heartbeat IPC: 0.160753 cumulative IPC: 0.144755 (Simulation time: 3 hr 24 min 17 sec) 
Heartbeat CPU 0 instructions: 67000000 cycles: 399834494 heartbeat IPC: 0.148321 cumulative IPC: 0.144816 (Simulation time: 3 hr 27 min 0 sec) 
Heartbeat CPU 0 instructions: 68000000 cycles: 406740132 heartbeat IPC: 0.144809 cumulative IPC: 0.144816 (Simulation time: 3 hr 29 min 53 sec) 
Heartbeat CPU 0 instructions: 69000000 cycles: 418015392 heartbeat IPC: 0.0886898 cumulative IPC: 0.143279 (Simulation time: 3 hr 33 min 21 sec) 
Heartbeat CPU 0 instructions: 70000000 cycles: 424079768 heartbeat IPC: 0.164897 cumulative IPC: 0.143593 (Simulation time: 3 hr 36 min 29 sec) 
Heartbeat CPU 0 instructions: 71000002 cycles: 430352353 heartbeat IPC: 0.159424 cumulative IPC: 0.143827 (Simulation time: 3 hr 39 min 23 sec) 
Heartbeat CPU 0 instructions: 72000000 cycles: 437209768 heartbeat IPC: 0.145827 cumulative IPC: 0.143858 (Simulation time: 3 hr 42 min 23 sec) 
Heartbeat CPU 0 instructions: 73000003 cycles: 444256833 heartbeat IPC: 0.141903 cumulative IPC: 0.143827 (Simulation time: 3 hr 45 min 15 sec) 
Heartbeat CPU 0 instructions: 74000000 cycles: 453009587 heartbeat IPC: 0.114249 cumulative IPC: 0.143248 (Simulation time: 3 hr 48 min 24 sec) 
Heartbeat CPU 0 instructions: 75000000 cycles: 459838474 heartbeat IPC: 0.146437 cumulative IPC: 0.143296 (Simulation time: 3 hr 51 min 33 sec) 
Heartbeat CPU 0 instructions: 76000000 cycles: 465592619 heartbeat IPC: 0.173788 cumulative IPC: 0.143678 (Simulation time: 3 hr 54 min 20 sec) 
Heartbeat CPU 0 instructions: 77000000 cycles: 471406974 heartbeat IPC: 0.171988 cumulative IPC: 0.144031 (Simulation time: 3 hr 57 min 3 sec) 
Heartbeat CPU 0 instructions: 78000001 cycles: 477313367 heartbeat IPC: 0.169308 cumulative IPC: 0.144348 (Simulation time: 3 hr 59 min 48 sec) 
Heartbeat CPU 0 instructions: 79000000 cycles: 485832293 heartbeat IPC: 0.117386 cumulative IPC: 0.143869 (Simulation time: 4 hr 2 min 52 sec) 
Heartbeat CPU 0 instructions: 80000000 cycles: 491537103 heartbeat IPC: 0.175291 cumulative IPC: 0.144239 (Simulation time: 4 hr 5 min 24 sec) 
Heartbeat CPU 0 instructions: 81000003 cycles: 498833952 heartbeat IPC: 0.137046 cumulative IPC: 0.144132 (Simulation time: 4 hr 8 min 10 sec) 
Heartbeat CPU 0 instructions: 82000001 cycles: 505696993 heartbeat IPC: 0.145708 cumulative IPC: 0.144154 (Simulation time: 4 hr 10 min 48 sec) 
Heartbeat CPU 0 instructions: 83000002 cycles: 511246071 heartbeat IPC: 0.18021 cumulative IPC: 0.14455 (Simulation time: 4 hr 13 min 16 sec) 
Heartbeat CPU 0 instructions: 84000000 cycles: 517370475 heartbeat IPC: 0.163281 cumulative IPC: 0.144774 (Simulation time: 4 hr 15 min 45 sec) 
Heartbeat CPU 0 instructions: 85000000 cycles: 524453094 heartbeat IPC: 0.141191 cumulative IPC: 0.144726 (Simulation time: 4 hr 18 min 8 sec) 
Heartbeat CPU 0 instructions: 86000001 cycles: 532685686 heartbeat IPC: 0.121469 cumulative IPC: 0.144362 (Simulation time: 4 hr 20 min 38 sec) 
Heartbeat CPU 0 instructions: 87000000 cycles: 538191910 heartbeat IPC: 0.181612 cumulative IPC: 0.144747 (Simulation time: 4 hr 22 min 59 sec) 
Heartbeat CPU 0 instructions: 88000000 cycles: 543981576 heartbeat IPC: 0.172722 cumulative IPC: 0.145049 (Simulation time: 4 hr 25 min 7 sec) 
Heartbeat CPU 0 instructions: 89000002 cycles: 550052373 heartbeat IPC: 0.164723 cumulative IPC: 0.145268 (Simulation time: 4 hr 27 min 7 sec) 
Heartbeat CPU 0 instructions: 90000002 cycles: 556056164 heartbeat IPC: 0.166561 cumulative IPC: 0.145501 (Simulation time: 4 hr 29 min 0 sec) 
Heartbeat CPU 0 instructions: 91000001 cycles: 564551376 heartbeat IPC: 0.117713 cumulative IPC: 0.145078 (Simulation time: 4 hr 31 min 2 sec) 
Heartbeat CPU 0 instructions: 92000000 cycles: 570942189 heartbeat IPC: 0.156474 cumulative IPC: 0.145207 (Simulation time: 4 hr 32 min 42 sec) 
Heartbeat CPU 0 instructions: 93000003 cycles: 577979529 heartbeat IPC: 0.1421 cumulative IPC: 0.145169 (Simulation time: 4 hr 34 min 11 sec) 
Heartbeat CPU 0 instructions: 94000000 cycles: 585468261 heartbeat IPC: 0.133534 cumulative IPC: 0.145018 (Simulation time: 4 hr 35 min 44 sec) 
Heartbeat CPU 0 instructions: 95000000 cycles: 591997999 heartbeat IPC: 0.153146 cumulative IPC: 0.145109 (Simulation time: 4 hr 37 min 10 sec) 
Heartbeat CPU 0 instructions: 96000000 cycles: 600742483 heartbeat IPC: 0.114358 cumulative IPC: 0.144657 (Simulation time: 4 hr 38 min 47 sec) 
Heartbeat CPU 0 instructions: 97000000 cycles: 607016561 heartbeat IPC: 0.159386 cumulative IPC: 0.14481 (Simulation time: 4 hr 40 min 3 sec) 
Heartbeat CPU 0 instructions: 98000003 cycles: 614131877 heartbeat IPC: 0.140542 cumulative IPC: 0.14476 (Simulation time: 4 hr 41 min 17 sec) 
Heartbeat CPU 0 instructions: 99000001 cycles: 621771197 heartbeat IPC: 0.130901 cumulative IPC: 0.144588 (Simulation time: 4 hr 42 min 18 sec) 
Heartbeat CPU 0 instructions: 100000000 cycles: 629295342 heartbeat IPC: 0.132905 cumulative IPC: 0.144447 (Simulation time: 4 hr 43 min 17 sec) 
Heartbeat CPU 0 instructions: 101000000 cycles: 638130123 heartbeat IPC: 0.113189 cumulative IPC: 0.14401 (Simulation time: 4 hr 44 min 11 sec) 
Heartbeat CPU 0 instructions: 102000001 cycles: 643965378 heartbeat IPC: 0.171372 cumulative IPC: 0.144261 (Simulation time: 4 hr 44 min 51 sec) 
Heartbeat CPU 0 instructions: 103000000 cycles: 650061051 heartbeat IPC: 0.164051 cumulative IPC: 0.144448 (Simulation time: 4 hr 45 min 41 sec) 
Heartbeat CPU 0 instructions: 104000000 cycles: 655946299 heartbeat IPC: 0.169916 cumulative IPC: 0.144679 (Simulation time: 4 hr 46 min 34 sec) 
Heartbeat CPU 0 instructions: 105000000 cycles: 661188245 heartbeat IPC: 0.190769 cumulative IPC: 0.145048 (Simulation time: 4 hr 47 min 11 sec) 
Heartbeat CPU 0 instructions: 106000000 cycles: 669833962 heartbeat IPC: 0.115664 cumulative IPC: 0.144665 (Simulation time: 4 hr 47 min 56 sec) 
Heartbeat CPU 0 instructions: 107000002 cycles: 676117918 heartbeat IPC: 0.159136 cumulative IPC: 0.1448 (Simulation time: 4 hr 48 min 27 sec) 
Heartbeat CPU 0 instructions: 108000000 cycles: 684868514 heartbeat IPC: 0.114278 cumulative IPC: 0.144407 (Simulation time: 4 hr 48 min 56 sec) 
Heartbeat CPU 0 instructions: 109000003 cycles: 690948876 heartbeat IPC: 0.164464 cumulative IPC: 0.144585 (Simulation time: 4 hr 49 min 21 sec) 
Heartbeat CPU 0 instructions: 110000003 cycles: 696970020 heartbeat IPC: 0.166081 cumulative IPC: 0.144772 (Simulation time: 4 hr 49 min 43 sec) 
Finished CPU 0 instructions: 100000001 cycles: 690739315 cummulative IPC: 0.144772 (Simulation time: 4 hr 49 min 43 sec) 

ChampSim completed all CPUs

Region of Interest Statistics

CPU 0 cummulative IPC: 0.144772 instructions: 100000001 cycles: 690739315
LLC TOTAL     ACCESS:    8750025  HIT:    3027517  MISS:    5722508
LLC LOAD      ACCESS:    1885187  HIT:     642376  MISS:    1242811
LLC RFO       ACCESS:    1828608  HIT:     804025  MISS:    1024583
LLC PREFETCH  ACCESS:    2273445  HIT:      68873  MISS:    2204572
LLC WRITEBACK ACCESS:    2762785  HIT:    1512243  MISS:    1250542
