
*** ChampSim Multicore Out-of-Order Simulator ***

Warmup Instructions: 10000000
Simulation Instructions: 100000000
Configuration: 2
Number of CPUs: 1
LLC sets: 2048
LLC ways: 16
Off-chip DRAM Channels: 1 Width: 64-bit Data Rate: 1600 MT/s

CPU 0 runs /datasets/cs240c-wi22-a00-public/data/Assignment2-gz/lbm_1004B.trace.gz
CPU 0 L1D next line prefetcher
CPU 0 L2C IP-based stride prefetcher
config 2, num_core 1, llc_sets 2048
Heartbeat CPU 0 instructions: 1000002 cycles: 391414 heartbeat IPC: 2.55484 cumulative IPC: 2.55484 (Simulation time: 0 hr 2 min 33 sec) 
Heartbeat CPU 0 instructions: 2000001 cycles: 782838 heartbeat IPC: 2.55477 cumulative IPC: 2.55481 (Simulation time: 0 hr 4 min 46 sec) 
Heartbeat CPU 0 instructions: 3000001 cycles: 1174187 heartbeat IPC: 2.55526 cumulative IPC: 2.55496 (Simulation time: 0 hr 7 min 6 sec) 
Heartbeat CPU 0 instructions: 4000000 cycles: 1570381 heartbeat IPC: 2.52401 cumulative IPC: 2.54715 (Simulation time: 0 hr 9 min 41 sec) 
Heartbeat CPU 0 instructions: 5000002 cycles: 1961799 heartbeat IPC: 2.55482 cumulative IPC: 2.54868 (Simulation time: 0 hr 12 min 11 sec) 
Heartbeat CPU 0 instructions: 6000002 cycles: 2353167 heartbeat IPC: 2.55514 cumulative IPC: 2.54976 (Simulation time: 0 hr 14 min 45 sec) 
Heartbeat CPU 0 instructions: 7000003 cycles: 2749275 heartbeat IPC: 2.52457 cumulative IPC: 2.54613 (Simulation time: 0 hr 17 min 9 sec) 
Heartbeat CPU 0 instructions: 8000000 cycles: 3140640 heartbeat IPC: 2.55515 cumulative IPC: 2.54725 (Simulation time: 0 hr 19 min 48 sec) 
Heartbeat CPU 0 instructions: 9000003 cycles: 3532088 heartbeat IPC: 2.55463 cumulative IPC: 2.54807 (Simulation time: 0 hr 22 min 8 sec) 
Heartbeat CPU 0 instructions: 10000000 cycles: 3923462 heartbeat IPC: 2.55509 cumulative IPC: 2.54877 (Simulation time: 0 hr 24 min 22 sec) 

Warmup complete CPU 0 instructions: 10000004 cycles: 3923463 (Simulation time: 0 hr 24 min 22 sec) 

Heartbeat CPU 0 instructions: 11000002 cycles: 5414810 heartbeat IPC: 0.670536 cumulative IPC: 0.670533 (Simulation time: 0 hr 27 min 1 sec) 
Heartbeat CPU 0 instructions: 12000000 cycles: 6706186 heartbeat IPC: 0.774366 cumulative IPC: 0.718719 (Simulation time: 0 hr 29 min 32 sec) 
Heartbeat CPU 0 instructions: 13000002 cycles: 8057579 heartbeat IPC: 0.739979 cumulative IPC: 0.725669 (Simulation time: 0 hr 31 min 54 sec) 
Heartbeat CPU 0 instructions: 14000003 cycles: 9513780 heartbeat IPC: 0.686719 cumulative IPC: 0.715523 (Simulation time: 0 hr 34 min 29 sec) 
Heartbeat CPU 0 instructions: 15000003 cycles: 10893222 heartbeat IPC: 0.724931 cumulative IPC: 0.717385 (Simulation time: 0 hr 37 min 3 sec) 
Heartbeat CPU 0 instructions: 16000000 cycles: 12183254 heartbeat IPC: 0.775172 cumulative IPC: 0.72641 (Simulation time: 0 hr 39 min 29 sec) 
Heartbeat CPU 0 instructions: 17000000 cycles: 13596592 heartbeat IPC: 0.707545 cumulative IPC: 0.723654 (Simulation time: 0 hr 42 min 9 sec) 
Heartbeat CPU 0 instructions: 18000002 cycles: 15021971 heartbeat IPC: 0.701569 cumulative IPC: 0.720817 (Simulation time: 0 hr 44 min 36 sec) 
Heartbeat CPU 0 instructions: 19000002 cycles: 16293704 heartbeat IPC: 0.786329 cumulative IPC: 0.727552 (Simulation time: 0 hr 47 min 9 sec) 
Heartbeat CPU 0 instructions: 20000000 cycles: 17652087 heartbeat IPC: 0.736168 cumulative IPC: 0.728405 (Simulation time: 0 hr 49 min 36 sec) 
Heartbeat CPU 0 instructions: 21000003 cycles: 19121017 heartbeat IPC: 0.68077 cumulative IPC: 0.723801 (Simulation time: 0 hr 52 min 3 sec) 
Heartbeat CPU 0 instructions: 22000002 cycles: 20445358 heartbeat IPC: 0.755092 cumulative IPC: 0.726309 (Simulation time: 0 hr 54 min 37 sec) 
Heartbeat CPU 0 instructions: 23000001 cycles: 21679875 heartbeat IPC: 0.810033 cumulative IPC: 0.73213 (Simulation time: 0 hr 57 min 7 sec) 
Heartbeat CPU 0 instructions: 24000000 cycles: 23152462 heartbeat IPC: 0.679076 cumulative IPC: 0.728067 (Simulation time: 0 hr 59 min 43 sec) 
Heartbeat CPU 0 instructions: 25000003 cycles: 24571609 heartbeat IPC: 0.704651 cumulative IPC: 0.726457 (Simulation time: 1 hr 2 min 15 sec) 
Heartbeat CPU 0 instructions: 26000002 cycles: 25774903 heartbeat IPC: 0.831051 cumulative IPC: 0.732217 (Simulation time: 1 hr 4 min 44 sec) 
Heartbeat CPU 0 instructions: 27000001 cycles: 27097645 heartbeat IPC: 0.756005 cumulative IPC: 0.733575 (Simulation time: 1 hr 7 min 9 sec) 
Heartbeat CPU 0 instructions: 28000000 cycles: 28590006 heartbeat IPC: 0.670079 cumulative IPC: 0.729733 (Simulation time: 1 hr 9 min 36 sec) 
Heartbeat CPU 0 instructions: 29000002 cycles: 29903435 heartbeat IPC: 0.761367 cumulative IPC: 0.731332 (Simulation time: 1 hr 12 min 4 sec) 
Heartbeat CPU 0 instructions: 30000003 cycles: 31100463 heartbeat IPC: 0.835403 cumulative IPC: 0.735916 (Simulation time: 1 hr 14 min 30 sec) 
Heartbeat CPU 0 instructions: 31000001 cycles: 32584951 heartbeat IPC: 0.673632 cumulative IPC: 0.73269 (Simulation time: 1 hr 17 min 2 sec) 
Heartbeat CPU 0 instructions: 32000000 cycles: 34015202 heartbeat IPC: 0.699177 cumulative IPC: 0.731098 (Simulation time: 1 hr 19 min 38 sec) 
Heartbeat CPU 0 instructions: 33000000 cycles: 35217275 heartbeat IPC: 0.831896 cumulative IPC: 0.734969 (Simulation time: 1 hr 22 min 12 sec) 
Heartbeat CPU 0 instructions: 34000002 cycles: 36616116 heartbeat IPC: 0.714879 cumulative IPC: 0.73411 (Simulation time: 1 hr 25 min 7 sec) 
Heartbeat CPU 0 instructions: 35000001 cycles: 38046332 heartbeat IPC: 0.699194 cumulative IPC: 0.732646 (Simulation time: 1 hr 28 min 17 sec) 
Heartbeat CPU 0 instructions: 36000000 cycles: 39412170 heartbeat IPC: 0.73215 cumulative IPC: 0.732627 (Simulation time: 1 hr 31 min 23 sec) 
Heartbeat CPU 0 instructions: 37000002 cycles: 40623185 heartbeat IPC: 0.825755 cumulative IPC: 0.7357 (Simulation time: 1 hr 34 min 32 sec) 
Heartbeat CPU 0 instructions: 38000000 cycles: 42073629 heartbeat IPC: 0.689443 cumulative IPC: 0.733942 (Simulation time: 1 hr 37 min 40 sec) 
Heartbeat CPU 0 instructions: 39000003 cycles: 43523769 heartbeat IPC: 0.689591 cumulative IPC: 0.732318 (Simulation time: 1 hr 40 min 35 sec) 
Heartbeat CPU 0 instructions: 40000000 cycles: 44810991 heartbeat IPC: 0.776864 cumulative IPC: 0.73372 (Simulation time: 1 hr 43 min 16 sec) 
Heartbeat CPU 0 instructions: 41000002 cycles: 46155461 heartbeat IPC: 0.743789 cumulative IPC: 0.73404 (Simulation time: 1 hr 46 min 20 sec) 
Heartbeat CPU 0 instructions: 42000000 cycles: 47540242 heartbeat IPC: 0.722134 cumulative IPC: 0.733663 (Simulation time: 1 hr 49 min 3 sec) 
Heartbeat CPU 0 instructions: 43000002 cycles: 48934313 heartbeat IPC: 0.717325 cumulative IPC: 0.733157 (Simulation time: 1 hr 51 min 37 sec) 
Heartbeat CPU 0 instructions: 44000000 cycles: 50288966 heartbeat IPC: 0.738195 cumulative IPC: 0.733304 (Simulation time: 1 hr 54 min 9 sec) 
Heartbeat CPU 0 instructions: 45000000 cycles: 51616928 heartbeat IPC: 0.753034 cumulative IPC: 0.733853 (Simulation time: 1 hr 56 min 55 sec) 
Heartbeat CPU 0 instructions: 46000003 cycles: 53039525 heartbeat IPC: 0.702942 cumulative IPC: 0.732958 (Simulation time: 2 hr 0 min 1 sec) 
Heartbeat CPU 0 instructions: 47000002 cycles: 54376685 heartbeat IPC: 0.747853 cumulative IPC: 0.733353 (Simulation time: 2 hr 3 min 0 sec) 
Heartbeat CPU 0 instructions: 48000000 cycles: 55743893 heartbeat IPC: 0.731416 cumulative IPC: 0.733301 (Simulation time: 2 hr 5 min 31 sec) 
Heartbeat CPU 0 instructions: 49000000 cycles: 57069323 heartbeat IPC: 0.754472 cumulative IPC: 0.733829 (Simulation time: 2 hr 8 min 11 sec) 
Heartbeat CPU 0 instructions: 50000003 cycles: 58446603 heartbeat IPC: 0.726071 cumulative IPC: 0.733633 (Simulation time: 2 hr 10 min 51 sec) 
Heartbeat CPU 0 instructions: 51000001 cycles: 59797026 heartbeat IPC: 0.740507 cumulative IPC: 0.7338 (Simulation time: 2 hr 13 min 22 sec) 
Heartbeat CPU 0 instructions: 52000000 cycles: 61099107 heartbeat IPC: 0.768001 cumulative IPC: 0.734578 (Simulation time: 2 hr 15 min 53 sec) 
Heartbeat CPU 0 instructions: 53000002 cycles: 62455458 heartbeat IPC: 0.737274 cumulative IPC: 0.734641 (Simulation time: 2 hr 18 min 31 sec) 
Heartbeat CPU 0 instructions: 54000002 cycles: 63818822 heartbeat IPC: 0.73348 cumulative IPC: 0.734614 (Simulation time: 2 hr 21 min 5 sec) 
Heartbeat CPU 0 instructions: 55000001 cycles: 65183066 heartbeat IPC: 0.733006 cumulative IPC: 0.734579 (Simulation time: 2 hr 23 min 31 sec) 
Heartbeat CPU 0 instructions: 56000000 cycles: 66520716 heartbeat IPC: 0.747579 cumulative IPC: 0.734856 (Simulation time: 2 hr 26 min 28 sec) 
Heartbeat CPU 0 instructions: 57000003 cycles: 67878232 heartbeat IPC: 0.736642 cumulative IPC: 0.734894 (Simulation time: 2 hr 29 min 10 sec) 
Heartbeat CPU 0 instructions: 58000003 cycles: 69266869 heartbeat IPC: 0.720131 cumulative IPC: 0.734581 (Simulation time: 2 hr 31 min 59 sec) 
Heartbeat CPU 0 instructions: 59000002 cycles: 70622757 heartbeat IPC: 0.737523 cumulative IPC: 0.73464 (Simulation time: 2 hr 34 min 54 sec) 
Heartbeat CPU 0 instructions: 60000000 cycles: 71950716 heartbeat IPC: 0.753034 cumulative IPC: 0.734999 (Simulation time: 2 hr 37 min 25 sec) 
Heartbeat CPU 0 instructions: 61000003 cycles: 73320751 heartbeat IPC: 0.729911 cumulative IPC: 0.734899 (Simulation time: 2 hr 40 min 3 sec) 
Heartbeat CPU 0 instructions: 62000001 cycles: 74628784 heartbeat IPC: 0.764505 cumulative IPC: 0.735447 (Simulation time: 2 hr 42 min 32 sec) 
Heartbeat CPU 0 instructions: 63000001 cycles: 75943769 heartbeat IPC: 0.760465 cumulative IPC: 0.735904 (Simulation time: 2 hr 44 min 53 sec) 
Heartbeat CPU 0 instructions: 64000000 cycles: 77284699 heartbeat IPC: 0.74575 cumulative IPC: 0.736084 (Simulation time: 2 hr 47 min 21 sec) 
Heartbeat CPU 0 instructions: 65000000 cycles: 78673741 heartbeat IPC: 0.719921 cumulative IPC: 0.735783 (Simulation time: 2 hr 49 min 42 sec) 
Heartbeat CPU 0 instructions: 66000000 cycles: 80013383 heartbeat IPC: 0.746468 cumulative IPC: 0.735971 (Simulation time: 2 hr 52 min 6 sec) 
Heartbeat CPU 0 instructions: 67000000 cycles: 81357951 heartbeat IPC: 0.743733 cumulative IPC: 0.736106 (Simulation time: 2 hr 54 min 33 sec) 
Heartbeat CPU 0 instructions: 68000000 cycles: 82759730 heartbeat IPC: 0.713379 cumulative IPC: 0.735702 (Simulation time: 2 hr 57 min 4 sec) 
Heartbeat CPU 0 instructions: 69000000 cycles: 84065771 heartbeat IPC: 0.765673 cumulative IPC: 0.73619 (Simulation time: 2 hr 59 min 19 sec) 
Heartbeat CPU 0 instructions: 70000000 cycles: 85418316 heartbeat IPC: 0.739347 cumulative IPC: 0.736243 (Simulation time: 3 hr 1 min 40 sec) 
Heartbeat CPU 0 instructions: 71000002 cycles: 86873022 heartbeat IPC: 0.687425 cumulative IPC: 0.735387 (Simulation time: 3 hr 4 min 23 sec) 
Heartbeat CPU 0 instructions: 72000000 cycles: 88962682 heartbeat IPC: 0.478546 cumulative IPC: 0.729075 (Simulation time: 3 hr 7 min 24 sec) 
Heartbeat CPU 0 instructions: 73000001 cycles: 91870761 heartbeat IPC: 0.34387 cumulative IPC: 0.716338 (Simulation time: 3 hr 10 min 46 sec) 
Heartbeat CPU 0 instructions: 74000002 cycles: 97988445 heartbeat IPC: 0.163461 cumulative IPC: 0.680381 (Simulation time: 3 hr 16 min 50 sec) 
Heartbeat CPU 0 instructions: 75000003 cycles: 100313582 heartbeat IPC: 0.430083 cumulative IPC: 0.674343 (Simulation time: 3 hr 19 min 51 sec) 
Heartbeat CPU 0 instructions: 76000000 cycles: 102329372 heartbeat IPC: 0.496082 cumulative IPC: 0.670691 (Simulation time: 3 hr 22 min 45 sec) 
Heartbeat CPU 0 instructions: 77000000 cycles: 103791580 heartbeat IPC: 0.683897 cumulative IPC: 0.670885 (Simulation time: 3 hr 25 min 17 sec) 
Heartbeat CPU 0 instructions: 78000002 cycles: 105248603 heartbeat IPC: 0.686332 cumulative IPC: 0.671107 (Simulation time: 3 hr 27 min 44 sec) 
Heartbeat CPU 0 instructions: 79000000 cycles: 106756614 heartbeat IPC: 0.663124 cumulative IPC: 0.67099 (Simulation time: 3 hr 30 min 14 sec) 
Heartbeat CPU 0 instructions: 80000000 cycles: 108127121 heartbeat IPC: 0.729657 cumulative IPC: 0.671761 (Simulation time: 3 hr 32 min 43 sec) 
Heartbeat CPU 0 instructions: 81000001 cycles: 109578808 heartbeat IPC: 0.688854 cumulative IPC: 0.671996 (Simulation time: 3 hr 35 min 19 sec) 
Heartbeat CPU 0 instructions: 82000002 cycles: 111050812 heartbeat IPC: 0.679347 cumulative IPC: 0.672097 (Simulation time: 3 hr 37 min 45 sec) 
Heartbeat CPU 0 instructions: 83000003 cycles: 112465552 heartbeat IPC: 0.706844 cumulative IPC: 0.67255 (Simulation time: 3 hr 40 min 19 sec) 
Heartbeat CPU 0 instructions: 84000000 cycles: 113759622 heartbeat IPC: 0.772753 cumulative IPC: 0.673731 (Simulation time: 3 hr 43 min 0 sec) 
Heartbeat CPU 0 instructions: 85000000 cycles: 115207077 heartbeat IPC: 0.690868 cumulative IPC: 0.673954 (Simulation time: 3 hr 45 min 37 sec) 
Heartbeat CPU 0 instructions: 86000002 cycles: 116737471 heartbeat IPC: 0.653428 cumulative IPC: 0.673675 (Simulation time: 3 hr 48 min 18 sec) 
Heartbeat CPU 0 instructions: 87000002 cycles: 117958506 heartbeat IPC: 0.818977 cumulative IPC: 0.675231 (Simulation time: 3 hr 50 min 35 sec) 
Heartbeat CPU 0 instructions: 88000000 cycles: 119291741 heartbeat IPC: 0.750054 cumulative IPC: 0.676096 (Simulation time: 3 hr 53 min 5 sec) 
Heartbeat CPU 0 instructions: 89000003 cycles: 120740939 heartbeat IPC: 0.690039 cumulative IPC: 0.676269 (Simulation time: 3 hr 55 min 14 sec) 
Heartbeat CPU 0 instructions: 90000002 cycles: 122148909 heartbeat IPC: 0.710242 cumulative IPC: 0.676673 (Simulation time: 3 hr 57 min 47 sec) 
Heartbeat CPU 0 instructions: 91000001 cycles: 123357417 heartbeat IPC: 0.827466 cumulative IPC: 0.678199 (Simulation time: 4 hr 0 min 10 sec) 
Heartbeat CPU 0 instructions: 92000000 cycles: 124788529 heartbeat IPC: 0.698757 cumulative IPC: 0.678442 (Simulation time: 4 hr 2 min 26 sec) 
Heartbeat CPU 0 instructions: 93000003 cycles: 126306928 heartbeat IPC: 0.65859 cumulative IPC: 0.678196 (Simulation time: 4 hr 4 min 41 sec) 
Heartbeat CPU 0 instructions: 94000003 cycles: 127545330 heartbeat IPC: 0.807492 cumulative IPC: 0.679491 (Simulation time: 4 hr 6 min 50 sec) 
Heartbeat CPU 0 instructions: 95000000 cycles: 128867671 heartbeat IPC: 0.756232 cumulative IPC: 0.680304 (Simulation time: 4 hr 8 min 52 sec) 
Heartbeat CPU 0 instructions: 96000000 cycles: 130410564 heartbeat IPC: 0.648133 cumulative IPC: 0.679911 (Simulation time: 4 hr 11 min 3 sec) 
Heartbeat CPU 0 instructions: 97000002 cycles: 131801294 heartbeat IPC: 0.719048 cumulative IPC: 0.680337 (Simulation time: 4 hr 13 min 12 sec) 
Heartbeat CPU 0 instructions: 98000001 cycles: 133003390 heartbeat IPC: 0.831879 cumulative IPC: 0.681748 (Simulation time: 4 hr 15 min 13 sec) 
Heartbeat CPU 0 instructions: 99000000 cycles: 134439265 heartbeat IPC: 0.696439 cumulative IPC: 0.68191 (Simulation time: 4 hr 17 min 7 sec) 
Heartbeat CPU 0 instructions: 100000000 cycles: 135957889 heartbeat IPC: 0.658491 cumulative IPC: 0.68164 (Simulation time: 4 hr 19 min 0 sec) 
Heartbeat CPU 0 instructions: 101000000 cycles: 137187698 heartbeat IPC: 0.813134 cumulative IPC: 0.682854 (Simulation time: 4 hr 20 min 42 sec) 
Heartbeat CPU 0 instructions: 102000000 cycles: 138502850 heartbeat IPC: 0.760368 cumulative IPC: 0.683611 (Simulation time: 4 hr 22 min 23 sec) 
Heartbeat CPU 0 instructions: 103000001 cycles: 140026090 heartbeat IPC: 0.656496 cumulative IPC: 0.683308 (Simulation time: 4 hr 24 min 1 sec) 
Heartbeat CPU 0 instructions: 104000000 cycles: 141370249 heartbeat IPC: 0.743959 cumulative IPC: 0.683901 (Simulation time: 4 hr 25 min 31 sec) 
Heartbeat CPU 0 instructions: 105000001 cycles: 142611375 heartbeat IPC: 0.805721 cumulative IPC: 0.684991 (Simulation time: 4 hr 26 min 56 sec) 
Heartbeat CPU 0 instructions: 106000000 cycles: 144032133 heartbeat IPC: 0.703849 cumulative IPC: 0.685182 (Simulation time: 4 hr 28 min 21 sec) 
Heartbeat CPU 0 instructions: 107000000 cycles: 145570785 heartbeat IPC: 0.64992 cumulative IPC: 0.684799 (Simulation time: 4 hr 29 min 48 sec) 
Heartbeat CPU 0 instructions: 108000000 cycles: 146844721 heartbeat IPC: 0.784969 cumulative IPC: 0.685692 (Simulation time: 4 hr 31 min 9 sec) 
Heartbeat CPU 0 instructions: 109000003 cycles: 148178872 heartbeat IPC: 0.749543 cumulative IPC: 0.686283 (Simulation time: 4 hr 32 min 27 sec) 
Heartbeat CPU 0 instructions: 110000001 cycles: 149686418 heartbeat IPC: 0.663328 cumulative IPC: 0.686045 (Simulation time: 4 hr 33 min 40 sec) 
Finished CPU 0 instructions: 100000001 cycles: 145762956 cummulative IPC: 0.686045 (Simulation time: 4 hr 33 min 40 sec) 

ChampSim completed all CPUs

Region of Interest Statistics

CPU 0 cummulative IPC: 0.686045 instructions: 100000001 cycles: 145762956
LLC TOTAL     ACCESS:    5788162  HIT:    1348284  MISS:    4439878
LLC LOAD      ACCESS:     413897  HIT:          4  MISS:     413893
LLC RFO       ACCESS:    2473121  HIT:     513614  MISS:    1959507
LLC PREFETCH  ACCESS:     428006  HIT:          5  MISS:     428001
LLC WRITEBACK ACCESS:    2473138  HIT:     834661  MISS:    1638477
