
*** ChampSim Multicore Out-of-Order Simulator ***

Warmup Instructions: 10000000
Simulation Instructions: 100000000
Configuration: 2
Number of CPUs: 1
LLC sets: 2048
LLC ways: 16
Off-chip DRAM Channels: 1 Width: 64-bit Data Rate: 1600 MT/s

CPU 0 runs /datasets/cs240c-wi22-a00-public/data/Assignment2-gz/calculix_3812B.trace.gz
CPU 0 L1D next line prefetcher
CPU 0 L2C IP-based stride prefetcher
config 2, num_core 1, llc_sets 2048
Heartbeat CPU 0 instructions: 1000001 cycles: 478705 heartbeat IPC: 2.08897 cumulative IPC: 2.08897 (Simulation time: 0 hr 2 min 43 sec) 
Heartbeat CPU 0 instructions: 2000002 cycles: 956508 heartbeat IPC: 2.09291 cumulative IPC: 2.09094 (Simulation time: 0 hr 5 min 26 sec) 
Heartbeat CPU 0 instructions: 3000002 cycles: 1435024 heartbeat IPC: 2.08979 cumulative IPC: 2.09056 (Simulation time: 0 hr 8 min 0 sec) 
Heartbeat CPU 0 instructions: 4000000 cycles: 1907507 heartbeat IPC: 2.11647 cumulative IPC: 2.09698 (Simulation time: 0 hr 10 min 38 sec) 
Heartbeat CPU 0 instructions: 5000000 cycles: 2355872 heartbeat IPC: 2.23033 cumulative IPC: 2.12236 (Simulation time: 0 hr 12 min 57 sec) 
Heartbeat CPU 0 instructions: 6000003 cycles: 2761286 heartbeat IPC: 2.46662 cumulative IPC: 2.1729 (Simulation time: 0 hr 15 min 2 sec) 
Heartbeat CPU 0 instructions: 7000002 cycles: 3154378 heartbeat IPC: 2.54393 cumulative IPC: 2.21914 (Simulation time: 0 hr 16 min 57 sec) 
Heartbeat CPU 0 instructions: 8000000 cycles: 3547511 heartbeat IPC: 2.54366 cumulative IPC: 2.2551 (Simulation time: 0 hr 18 min 58 sec) 
Heartbeat CPU 0 instructions: 9000000 cycles: 3940526 heartbeat IPC: 2.54443 cumulative IPC: 2.28396 (Simulation time: 0 hr 21 min 4 sec) 
Heartbeat CPU 0 instructions: 10000003 cycles: 4333637 heartbeat IPC: 2.54382 cumulative IPC: 2.30753 (Simulation time: 0 hr 23 min 18 sec) 

Warmup complete CPU 0 instructions: 10000003 cycles: 4333637 (Simulation time: 0 hr 23 min 18 sec) 

Heartbeat CPU 0 instructions: 11000001 cycles: 4772054 heartbeat IPC: 2.28093 cumulative IPC: 2.28093 (Simulation time: 0 hr 25 min 40 sec) 
Heartbeat CPU 0 instructions: 12000000 cycles: 5208858 heartbeat IPC: 2.28935 cumulative IPC: 2.28513 (Simulation time: 0 hr 27 min 57 sec) 
Heartbeat CPU 0 instructions: 13000002 cycles: 5645208 heartbeat IPC: 2.29174 cumulative IPC: 2.28733 (Simulation time: 0 hr 30 min 20 sec) 
Heartbeat CPU 0 instructions: 14000000 cycles: 6444149 heartbeat IPC: 1.25165 cumulative IPC: 1.89527 (Simulation time: 0 hr 33 min 2 sec) 
Heartbeat CPU 0 instructions: 15000003 cycles: 6921412 heartbeat IPC: 2.09529 cumulative IPC: 1.93216 (Simulation time: 0 hr 35 min 29 sec) 
Heartbeat CPU 0 instructions: 16000000 cycles: 7366754 heartbeat IPC: 2.24546 cumulative IPC: 1.97816 (Simulation time: 0 hr 37 min 57 sec) 
Heartbeat CPU 0 instructions: 17000001 cycles: 7807589 heartbeat IPC: 2.26842 cumulative IPC: 2.015 (Simulation time: 0 hr 40 min 13 sec) 
Heartbeat CPU 0 instructions: 18000001 cycles: 8244072 heartbeat IPC: 2.29104 cumulative IPC: 2.04581 (Simulation time: 0 hr 42 min 36 sec) 
Heartbeat CPU 0 instructions: 19000001 cycles: 8681659 heartbeat IPC: 2.28526 cumulative IPC: 2.06991 (Simulation time: 0 hr 44 min 58 sec) 
Heartbeat CPU 0 instructions: 20000000 cycles: 9205579 heartbeat IPC: 1.90869 cumulative IPC: 2.05257 (Simulation time: 0 hr 47 min 29 sec) 
Heartbeat CPU 0 instructions: 21000001 cycles: 9646803 heartbeat IPC: 2.26642 cumulative IPC: 2.07033 (Simulation time: 0 hr 49 min 54 sec) 
Heartbeat CPU 0 instructions: 22000000 cycles: 10088750 heartbeat IPC: 2.26271 cumulative IPC: 2.0851 (Simulation time: 0 hr 52 min 17 sec) 
Heartbeat CPU 0 instructions: 23000001 cycles: 10528590 heartbeat IPC: 2.27356 cumulative IPC: 2.09848 (Simulation time: 0 hr 54 min 37 sec) 
Heartbeat CPU 0 instructions: 24000000 cycles: 10968937 heartbeat IPC: 2.27093 cumulative IPC: 2.10993 (Simulation time: 0 hr 56 min 57 sec) 
Heartbeat CPU 0 instructions: 25000003 cycles: 11494094 heartbeat IPC: 1.9042 cumulative IPC: 2.09484 (Simulation time: 0 hr 59 min 27 sec) 
Heartbeat CPU 0 instructions: 26000003 cycles: 12041353 heartbeat IPC: 1.82729 cumulative IPC: 2.07584 (Simulation time: 1 hr 2 min 3 sec) 
Heartbeat CPU 0 instructions: 27000000 cycles: 12575229 heartbeat IPC: 1.87309 cumulative IPC: 2.06271 (Simulation time: 1 hr 4 min 26 sec) 
Heartbeat CPU 0 instructions: 28000000 cycles: 13216571 heartbeat IPC: 1.55923 cumulative IPC: 2.02636 (Simulation time: 1 hr 7 min 11 sec) 
Heartbeat CPU 0 instructions: 29000002 cycles: 13694223 heartbeat IPC: 2.09358 cumulative IPC: 2.02979 (Simulation time: 1 hr 9 min 29 sec) 
Heartbeat CPU 0 instructions: 30000001 cycles: 14247574 heartbeat IPC: 1.80717 cumulative IPC: 2.01736 (Simulation time: 1 hr 12 min 0 sec) 
Heartbeat CPU 0 instructions: 31000001 cycles: 14794720 heartbeat IPC: 1.82767 cumulative IPC: 2.00744 (Simulation time: 1 hr 14 min 30 sec) 
Heartbeat CPU 0 instructions: 32000000 cycles: 15527400 heartbeat IPC: 1.36485 cumulative IPC: 1.96538 (Simulation time: 1 hr 17 min 14 sec) 
Heartbeat CPU 0 instructions: 33000003 cycles: 16232008 heartbeat IPC: 1.41923 cumulative IPC: 1.93304 (Simulation time: 1 hr 20 min 4 sec) 
Heartbeat CPU 0 instructions: 34000000 cycles: 16931904 heartbeat IPC: 1.42878 cumulative IPC: 1.90502 (Simulation time: 1 hr 22 min 53 sec) 
Heartbeat CPU 0 instructions: 35000000 cycles: 17605103 heartbeat IPC: 1.48544 cumulative IPC: 1.88374 (Simulation time: 1 hr 26 min 4 sec) 
Heartbeat CPU 0 instructions: 36000000 cycles: 18246436 heartbeat IPC: 1.55925 cumulative IPC: 1.86878 (Simulation time: 1 hr 29 min 5 sec) 
Heartbeat CPU 0 instructions: 37000002 cycles: 18872253 heartbeat IPC: 1.59791 cumulative IPC: 1.85712 (Simulation time: 1 hr 31 min 56 sec) 
Heartbeat CPU 0 instructions: 38000003 cycles: 19507260 heartbeat IPC: 1.57479 cumulative IPC: 1.84531 (Simulation time: 1 hr 34 min 55 sec) 
Heartbeat CPU 0 instructions: 39000003 cycles: 20281416 heartbeat IPC: 1.29173 cumulative IPC: 1.81844 (Simulation time: 1 hr 37 min 47 sec) 
Heartbeat CPU 0 instructions: 40000000 cycles: 21117269 heartbeat IPC: 1.19638 cumulative IPC: 1.78746 (Simulation time: 1 hr 40 min 28 sec) 
Heartbeat CPU 0 instructions: 41000000 cycles: 22039663 heartbeat IPC: 1.08414 cumulative IPC: 1.75082 (Simulation time: 1 hr 43 min 25 sec) 
Heartbeat CPU 0 instructions: 42000001 cycles: 22641163 heartbeat IPC: 1.66251 cumulative IPC: 1.74791 (Simulation time: 1 hr 46 min 14 sec) 
Heartbeat CPU 0 instructions: 43000000 cycles: 23262222 heartbeat IPC: 1.61015 cumulative IPC: 1.74339 (Simulation time: 1 hr 48 min 50 sec) 
Heartbeat CPU 0 instructions: 44000000 cycles: 23938979 heartbeat IPC: 1.47764 cumulative IPC: 1.73422 (Simulation time: 1 hr 51 min 32 sec) 
Heartbeat CPU 0 instructions: 45000002 cycles: 24613388 heartbeat IPC: 1.48278 cumulative IPC: 1.72586 (Simulation time: 1 hr 54 min 19 sec) 
Heartbeat CPU 0 instructions: 46000002 cycles: 25337125 heartbeat IPC: 1.38172 cumulative IPC: 1.714 (Simulation time: 1 hr 57 min 12 sec) 
Heartbeat CPU 0 instructions: 47000002 cycles: 26140008 heartbeat IPC: 1.24551 cumulative IPC: 1.69675 (Simulation time: 2 hr 0 min 5 sec) 
Heartbeat CPU 0 instructions: 48000000 cycles: 26586309 heartbeat IPC: 2.24064 cumulative IPC: 1.70766 (Simulation time: 2 hr 2 min 30 sec) 
Heartbeat CPU 0 instructions: 49000000 cycles: 27040583 heartbeat IPC: 2.20131 cumulative IPC: 1.71754 (Simulation time: 2 hr 4 min 54 sec) 
Heartbeat CPU 0 instructions: 50000000 cycles: 27526930 heartbeat IPC: 2.05615 cumulative IPC: 1.72464 (Simulation time: 2 hr 7 min 16 sec) 
Heartbeat CPU 0 instructions: 51000000 cycles: 28115079 heartbeat IPC: 1.70025 cumulative IPC: 1.72403 (Simulation time: 2 hr 9 min 39 sec) 
Heartbeat CPU 0 instructions: 52000000 cycles: 28657067 heartbeat IPC: 1.84506 cumulative IPC: 1.72673 (Simulation time: 2 hr 12 min 12 sec) 
Heartbeat CPU 0 instructions: 53000000 cycles: 29114010 heartbeat IPC: 2.18846 cumulative IPC: 1.73524 (Simulation time: 2 hr 14 min 32 sec) 
Heartbeat CPU 0 instructions: 54000003 cycles: 29570452 heartbeat IPC: 2.19087 cumulative IPC: 1.74348 (Simulation time: 2 hr 16 min 55 sec) 
Heartbeat CPU 0 instructions: 55000001 cycles: 30027494 heartbeat IPC: 2.18798 cumulative IPC: 1.75139 (Simulation time: 2 hr 19 min 10 sec) 
Heartbeat CPU 0 instructions: 56000000 cycles: 30485105 heartbeat IPC: 2.18526 cumulative IPC: 1.75898 (Simulation time: 2 hr 21 min 35 sec) 
Heartbeat CPU 0 instructions: 57000003 cycles: 30947636 heartbeat IPC: 2.16202 cumulative IPC: 1.76599 (Simulation time: 2 hr 23 min 54 sec) 
Heartbeat CPU 0 instructions: 58000000 cycles: 31422112 heartbeat IPC: 2.10758 cumulative IPC: 1.77197 (Simulation time: 2 hr 26 min 33 sec) 
Heartbeat CPU 0 instructions: 59000001 cycles: 32005870 heartbeat IPC: 1.71304 cumulative IPC: 1.77073 (Simulation time: 2 hr 29 min 15 sec) 
Heartbeat CPU 0 instructions: 60000000 cycles: 32556836 heartbeat IPC: 1.81499 cumulative IPC: 1.77159 (Simulation time: 2 hr 31 min 55 sec) 
Heartbeat CPU 0 instructions: 61000003 cycles: 33116979 heartbeat IPC: 1.78526 cumulative IPC: 1.77186 (Simulation time: 2 hr 34 min 39 sec) 
Heartbeat CPU 0 instructions: 62000002 cycles: 33674672 heartbeat IPC: 1.7931 cumulative IPC: 1.77226 (Simulation time: 2 hr 37 min 9 sec) 
Heartbeat CPU 0 instructions: 63000001 cycles: 34241383 heartbeat IPC: 1.76457 cumulative IPC: 1.77212 (Simulation time: 2 hr 39 min 39 sec) 
Heartbeat CPU 0 instructions: 64000000 cycles: 34804566 heartbeat IPC: 1.77562 cumulative IPC: 1.77218 (Simulation time: 2 hr 42 min 22 sec) 
Heartbeat CPU 0 instructions: 65000000 cycles: 35503279 heartbeat IPC: 1.4312 cumulative IPC: 1.76454 (Simulation time: 2 hr 44 min 53 sec) 
Heartbeat CPU 0 instructions: 66000002 cycles: 36056520 heartbeat IPC: 1.80753 cumulative IPC: 1.76529 (Simulation time: 2 hr 47 min 27 sec) 
Heartbeat CPU 0 instructions: 67000002 cycles: 36552926 heartbeat IPC: 2.01448 cumulative IPC: 1.76913 (Simulation time: 2 hr 49 min 42 sec) 
Heartbeat CPU 0 instructions: 68000000 cycles: 37039045 heartbeat IPC: 2.05711 cumulative IPC: 1.77341 (Simulation time: 2 hr 52 min 5 sec) 
Heartbeat CPU 0 instructions: 69000003 cycles: 37577792 heartbeat IPC: 1.85616 cumulative IPC: 1.77475 (Simulation time: 2 hr 54 min 29 sec) 
Heartbeat CPU 0 instructions: 70000000 cycles: 38084029 heartbeat IPC: 1.97535 cumulative IPC: 1.77776 (Simulation time: 2 hr 56 min 44 sec) 
Heartbeat CPU 0 instructions: 71000000 cycles: 38594469 heartbeat IPC: 1.95909 cumulative IPC: 1.78046 (Simulation time: 2 hr 58 min 50 sec) 
Heartbeat CPU 0 instructions: 72000000 cycles: 39107640 heartbeat IPC: 1.94867 cumulative IPC: 1.78294 (Simulation time: 3 hr 1 min 4 sec) 
Heartbeat CPU 0 instructions: 73000001 cycles: 39659166 heartbeat IPC: 1.81315 cumulative IPC: 1.78341 (Simulation time: 3 hr 3 min 28 sec) 
Heartbeat CPU 0 instructions: 74000002 cycles: 40278258 heartbeat IPC: 1.61527 cumulative IPC: 1.78052 (Simulation time: 3 hr 6 min 1 sec) 
Heartbeat CPU 0 instructions: 75000000 cycles: 40820051 heartbeat IPC: 1.84572 cumulative IPC: 1.78148 (Simulation time: 3 hr 8 min 8 sec) 
Heartbeat CPU 0 instructions: 76000000 cycles: 41594413 heartbeat IPC: 1.29139 cumulative IPC: 1.7713 (Simulation time: 3 hr 10 min 46 sec) 
Heartbeat CPU 0 instructions: 77000000 cycles: 42316828 heartbeat IPC: 1.38425 cumulative IPC: 1.76394 (Simulation time: 3 hr 13 min 31 sec) 
Heartbeat CPU 0 instructions: 78000003 cycles: 43035469 heartbeat IPC: 1.39152 cumulative IPC: 1.75702 (Simulation time: 3 hr 16 min 12 sec) 
Heartbeat CPU 0 instructions: 79000000 cycles: 43746370 heartbeat IPC: 1.40666 cumulative IPC: 1.7507 (Simulation time: 3 hr 19 min 4 sec) 
Heartbeat CPU 0 instructions: 80000000 cycles: 44431452 heartbeat IPC: 1.45968 cumulative IPC: 1.74573 (Simulation time: 3 hr 21 min 59 sec) 
Heartbeat CPU 0 instructions: 81000001 cycles: 45095784 heartbeat IPC: 1.50527 cumulative IPC: 1.74181 (Simulation time: 3 hr 25 min 12 sec) 
Heartbeat CPU 0 instructions: 82000002 cycles: 45738742 heartbeat IPC: 1.55531 cumulative IPC: 1.73892 (Simulation time: 3 hr 28 min 6 sec) 
Heartbeat CPU 0 instructions: 83000002 cycles: 46542333 heartbeat IPC: 1.24441 cumulative IPC: 1.7295 (Simulation time: 3 hr 31 min 21 sec) 
Heartbeat CPU 0 instructions: 84000000 cycles: 47186010 heartbeat IPC: 1.55357 cumulative IPC: 1.72686 (Simulation time: 3 hr 34 min 18 sec) 
Heartbeat CPU 0 instructions: 85000000 cycles: 47709275 heartbeat IPC: 1.91108 cumulative IPC: 1.72908 (Simulation time: 3 hr 37 min 25 sec) 
Heartbeat CPU 0 instructions: 86000001 cycles: 48231627 heartbeat IPC: 1.91442 cumulative IPC: 1.73129 (Simulation time: 3 hr 39 min 45 sec) 
Heartbeat CPU 0 instructions: 87000002 cycles: 48747377 heartbeat IPC: 1.93893 cumulative IPC: 1.7337 (Simulation time: 3 hr 42 min 17 sec) 
Heartbeat CPU 0 instructions: 88000000 cycles: 49261368 heartbeat IPC: 1.94556 cumulative IPC: 1.73612 (Simulation time: 3 hr 44 min 56 sec) 
Heartbeat CPU 0 instructions: 89000003 cycles: 49770352 heartbeat IPC: 1.9647 cumulative IPC: 1.73868 (Simulation time: 3 hr 47 min 35 sec) 
Heartbeat CPU 0 instructions: 90000003 cycles: 50284954 heartbeat IPC: 1.94325 cumulative IPC: 1.74097 (Simulation time: 3 hr 49 min 48 sec) 
Heartbeat CPU 0 instructions: 91000002 cycles: 50814739 heartbeat IPC: 1.88756 cumulative IPC: 1.74264 (Simulation time: 3 hr 52 min 2 sec) 
Heartbeat CPU 0 instructions: 92000000 cycles: 51276333 heartbeat IPC: 2.1664 cumulative IPC: 1.74681 (Simulation time: 3 hr 54 min 17 sec) 
Heartbeat CPU 0 instructions: 93000000 cycles: 51728922 heartbeat IPC: 2.20951 cumulative IPC: 1.75123 (Simulation time: 3 hr 56 min 32 sec) 
Heartbeat CPU 0 instructions: 94000003 cycles: 52179909 heartbeat IPC: 2.21737 cumulative IPC: 1.75562 (Simulation time: 3 hr 58 min 55 sec) 
Heartbeat CPU 0 instructions: 95000001 cycles: 52784476 heartbeat IPC: 1.65407 cumulative IPC: 1.75436 (Simulation time: 4 hr 1 min 19 sec) 
Heartbeat CPU 0 instructions: 96000000 cycles: 53343570 heartbeat IPC: 1.78861 cumulative IPC: 1.75475 (Simulation time: 4 hr 3 min 40 sec) 
Heartbeat CPU 0 instructions: 97000000 cycles: 53843490 heartbeat IPC: 2.00032 cumulative IPC: 1.75723 (Simulation time: 4 hr 5 min 50 sec) 
Heartbeat CPU 0 instructions: 98000003 cycles: 54344510 heartbeat IPC: 1.99593 cumulative IPC: 1.75962 (Simulation time: 4 hr 7 min 53 sec) 
Heartbeat CPU 0 instructions: 99000000 cycles: 54843739 heartbeat IPC: 2.00308 cumulative IPC: 1.76202 (Simulation time: 4 hr 10 min 0 sec) 
Heartbeat CPU 0 instructions: 100000000 cycles: 55343635 heartbeat IPC: 2.00042 cumulative IPC: 1.76436 (Simulation time: 4 hr 12 min 15 sec) 
Heartbeat CPU 0 instructions: 101000003 cycles: 55839689 heartbeat IPC: 2.01592 cumulative IPC: 1.76678 (Simulation time: 4 hr 14 min 23 sec) 
Heartbeat CPU 0 instructions: 102000002 cycles: 56396597 heartbeat IPC: 1.79563 cumulative IPC: 1.76709 (Simulation time: 4 hr 16 min 27 sec) 
Heartbeat CPU 0 instructions: 103000000 cycles: 56957772 heartbeat IPC: 1.78197 cumulative IPC: 1.76725 (Simulation time: 4 hr 18 min 18 sec) 
Heartbeat CPU 0 instructions: 104000000 cycles: 57519507 heartbeat IPC: 1.7802 cumulative IPC: 1.76739 (Simulation time: 4 hr 20 min 0 sec) 
Heartbeat CPU 0 instructions: 105000000 cycles: 58088081 heartbeat IPC: 1.75879 cumulative IPC: 1.7673 (Simulation time: 4 hr 21 min 38 sec) 
Heartbeat CPU 0 instructions: 106000003 cycles: 58653572 heartbeat IPC: 1.76838 cumulative IPC: 1.76731 (Simulation time: 4 hr 23 min 15 sec) 
Heartbeat CPU 0 instructions: 107000000 cycles: 59220351 heartbeat IPC: 1.76435 cumulative IPC: 1.76728 (Simulation time: 4 hr 24 min 48 sec) 
Heartbeat CPU 0 instructions: 108000000 cycles: 59833883 heartbeat IPC: 1.62991 cumulative IPC: 1.76576 (Simulation time: 4 hr 26 min 25 sec) 
Heartbeat CPU 0 instructions: 109000002 cycles: 60474348 heartbeat IPC: 1.56137 cumulative IPC: 1.76343 (Simulation time: 4 hr 27 min 51 sec) 
Heartbeat CPU 0 instructions: 110000003 cycles: 60955258 heartbeat IPC: 2.07939 cumulative IPC: 1.76611 (Simulation time: 4 hr 29 min 9 sec) 
Finished CPU 0 instructions: 100000000 cycles: 56621621 cummulative IPC: 1.76611 (Simulation time: 4 hr 29 min 9 sec) 

ChampSim completed all CPUs

Region of Interest Statistics

CPU 0 cummulative IPC: 1.76611 instructions: 100000000 cycles: 56621621
LLC TOTAL     ACCESS:    1161485  HIT:     912585  MISS:     248900
LLC LOAD      ACCESS:     133690  HIT:     126884  MISS:       6806
LLC RFO       ACCESS:      47547  HIT:      13655  MISS:      33892
LLC PREFETCH  ACCESS:     680425  HIT:     492965  MISS:     187460
LLC WRITEBACK ACCESS:     299823  HIT:     279081  MISS:      20742
