
*** ChampSim Multicore Out-of-Order Simulator ***

Warmup Instructions: 10000000
Simulation Instructions: 100000000
Configuration: 2
Number of CPUs: 1
LLC sets: 2048
LLC ways: 16
Off-chip DRAM Channels: 1 Width: 64-bit Data Rate: 1600 MT/s

CPU 0 runs /datasets/cs240c-wi22-a00-public/data/Assignment2-gz/GemsFDTD_109B.trace.gz
CPU 0 L1D next line prefetcher
CPU 0 L2C IP-based stride prefetcher
config 2, num_core 1, llc_sets 2048
Heartbeat CPU 0 instructions: 1000002 cycles: 579772 heartbeat IPC: 1.72482 cumulative IPC: 1.72482 (Simulation time: 0 hr 2 min 57 sec) 
Heartbeat CPU 0 instructions: 2000001 cycles: 1159546 heartbeat IPC: 1.72481 cumulative IPC: 1.72481 (Simulation time: 0 hr 6 min 1 sec) 
Heartbeat CPU 0 instructions: 3000000 cycles: 1738738 heartbeat IPC: 1.72654 cumulative IPC: 1.72539 (Simulation time: 0 hr 9 min 2 sec) 
Heartbeat CPU 0 instructions: 4000000 cycles: 2317734 heartbeat IPC: 1.72713 cumulative IPC: 1.72582 (Simulation time: 0 hr 12 min 20 sec) 
Heartbeat CPU 0 instructions: 5000000 cycles: 2897573 heartbeat IPC: 1.72462 cumulative IPC: 1.72558 (Simulation time: 0 hr 15 min 24 sec) 
Heartbeat CPU 0 instructions: 6000002 cycles: 3478308 heartbeat IPC: 1.72196 cumulative IPC: 1.72498 (Simulation time: 0 hr 18 min 30 sec) 
Heartbeat CPU 0 instructions: 7000001 cycles: 4059013 heartbeat IPC: 1.72204 cumulative IPC: 1.72456 (Simulation time: 0 hr 21 min 35 sec) 
Heartbeat CPU 0 instructions: 8000000 cycles: 4639218 heartbeat IPC: 1.72353 cumulative IPC: 1.72443 (Simulation time: 0 hr 24 min 27 sec) 
Heartbeat CPU 0 instructions: 9000002 cycles: 5219405 heartbeat IPC: 1.72359 cumulative IPC: 1.72433 (Simulation time: 0 hr 27 min 12 sec) 
Heartbeat CPU 0 instructions: 10000001 cycles: 5799582 heartbeat IPC: 1.72361 cumulative IPC: 1.72426 (Simulation time: 0 hr 29 min 55 sec) 

Warmup complete CPU 0 instructions: 10000001 cycles: 5799582 (Simulation time: 0 hr 29 min 55 sec) 

Heartbeat CPU 0 instructions: 11000002 cycles: 6860351 heartbeat IPC: 0.942713 cumulative IPC: 0.942713 (Simulation time: 0 hr 32 min 56 sec) 
Heartbeat CPU 0 instructions: 12000000 cycles: 7923302 heartbeat IPC: 0.940775 cumulative IPC: 0.941743 (Simulation time: 0 hr 36 min 16 sec) 
Heartbeat CPU 0 instructions: 13000001 cycles: 9017892 heartbeat IPC: 0.913585 cumulative IPC: 0.932166 (Simulation time: 0 hr 39 min 28 sec) 
Heartbeat CPU 0 instructions: 14000002 cycles: 10093841 heartbeat IPC: 0.929413 cumulative IPC: 0.931476 (Simulation time: 0 hr 42 min 23 sec) 
Heartbeat CPU 0 instructions: 15000000 cycles: 11175468 heartbeat IPC: 0.924531 cumulative IPC: 0.930079 (Simulation time: 0 hr 45 min 33 sec) 
Heartbeat CPU 0 instructions: 16000000 cycles: 12251753 heartbeat IPC: 0.929122 cumulative IPC: 0.929919 (Simulation time: 0 hr 48 min 29 sec) 
Heartbeat CPU 0 instructions: 17000000 cycles: 13349060 heartbeat IPC: 0.911322 cumulative IPC: 0.927216 (Simulation time: 0 hr 51 min 29 sec) 
Heartbeat CPU 0 instructions: 18000003 cycles: 14412621 heartbeat IPC: 0.94024 cumulative IPC: 0.928825 (Simulation time: 0 hr 54 min 36 sec) 
Heartbeat CPU 0 instructions: 19000001 cycles: 15496890 heartbeat IPC: 0.922279 cumulative IPC: 0.928093 (Simulation time: 0 hr 57 min 42 sec) 
Heartbeat CPU 0 instructions: 20000000 cycles: 16717637 heartbeat IPC: 0.81917 cumulative IPC: 0.915914 (Simulation time: 1 hr 0 min 39 sec) 
Heartbeat CPU 0 instructions: 21000001 cycles: 18032028 heartbeat IPC: 0.760809 cumulative IPC: 0.899248 (Simulation time: 1 hr 3 min 46 sec) 
Heartbeat CPU 0 instructions: 22000001 cycles: 21576923 heartbeat IPC: 0.282096 cumulative IPC: 0.760584 (Simulation time: 1 hr 7 min 24 sec) 
Heartbeat CPU 0 instructions: 23000001 cycles: 22885584 heartbeat IPC: 0.76414 cumulative IPC: 0.760857 (Simulation time: 1 hr 10 min 21 sec) 
Heartbeat CPU 0 instructions: 24000000 cycles: 26646012 heartbeat IPC: 0.265927 cumulative IPC: 0.671578 (Simulation time: 1 hr 13 min 44 sec) 
Heartbeat CPU 0 instructions: 25000003 cycles: 27943007 heartbeat IPC: 0.771015 cumulative IPC: 0.677402 (Simulation time: 1 hr 16 min 40 sec) 
Heartbeat CPU 0 instructions: 26000000 cycles: 31703149 heartbeat IPC: 0.265947 cumulative IPC: 0.617675 (Simulation time: 1 hr 19 min 52 sec) 
Heartbeat CPU 0 instructions: 27000000 cycles: 32991745 heartbeat IPC: 0.776038 cumulative IPC: 0.62518 (Simulation time: 1 hr 22 min 48 sec) 
Heartbeat CPU 0 instructions: 28000000 cycles: 36545818 heartbeat IPC: 0.281367 cumulative IPC: 0.585437 (Simulation time: 1 hr 25 min 52 sec) 
Heartbeat CPU 0 instructions: 29000000 cycles: 37819056 heartbeat IPC: 0.785399 cumulative IPC: 0.593389 (Simulation time: 1 hr 28 min 32 sec) 
Heartbeat CPU 0 instructions: 30000003 cycles: 39185378 heartbeat IPC: 0.731894 cumulative IPC: 0.599057 (Simulation time: 1 hr 30 min 59 sec) 
Heartbeat CPU 0 instructions: 31000002 cycles: 40390499 heartbeat IPC: 0.829791 cumulative IPC: 0.607096 (Simulation time: 1 hr 33 min 29 sec) 
Heartbeat CPU 0 instructions: 32000000 cycles: 41696188 heartbeat IPC: 0.765878 cumulative IPC: 0.612871 (Simulation time: 1 hr 36 min 10 sec) 
Heartbeat CPU 0 instructions: 33000003 cycles: 42857887 heartbeat IPC: 0.860811 cumulative IPC: 0.620644 (Simulation time: 1 hr 38 min 44 sec) 
Heartbeat CPU 0 instructions: 34000002 cycles: 44137251 heartbeat IPC: 0.781638 cumulative IPC: 0.626016 (Simulation time: 1 hr 41 min 0 sec) 
Heartbeat CPU 0 instructions: 35000003 cycles: 45317572 heartbeat IPC: 0.847228 cumulative IPC: 0.632623 (Simulation time: 1 hr 43 min 38 sec) 
Heartbeat CPU 0 instructions: 36000000 cycles: 46656910 heartbeat IPC: 0.746635 cumulative IPC: 0.636361 (Simulation time: 1 hr 46 min 13 sec) 
Heartbeat CPU 0 instructions: 37000000 cycles: 47986406 heartbeat IPC: 0.752165 cumulative IPC: 0.64001 (Simulation time: 1 hr 49 min 4 sec) 
Heartbeat CPU 0 instructions: 38000001 cycles: 49315944 heartbeat IPC: 0.752142 cumulative IPC: 0.643436 (Simulation time: 1 hr 51 min 55 sec) 
Heartbeat CPU 0 instructions: 39000000 cycles: 50645333 heartbeat IPC: 0.752225 cumulative IPC: 0.646661 (Simulation time: 1 hr 55 min 6 sec) 
Heartbeat CPU 0 instructions: 40000000 cycles: 51974873 heartbeat IPC: 0.75214 cumulative IPC: 0.649698 (Simulation time: 1 hr 57 min 56 sec) 
Heartbeat CPU 0 instructions: 41000000 cycles: 53198326 heartbeat IPC: 0.817359 cumulative IPC: 0.654026 (Simulation time: 2 hr 0 min 23 sec) 
Heartbeat CPU 0 instructions: 42000000 cycles: 54527807 heartbeat IPC: 0.752173 cumulative IPC: 0.656704 (Simulation time: 2 hr 3 min 17 sec) 
Heartbeat CPU 0 instructions: 43000002 cycles: 55857476 heartbeat IPC: 0.752068 cumulative IPC: 0.659237 (Simulation time: 2 hr 6 min 4 sec) 
Heartbeat CPU 0 instructions: 44000000 cycles: 57186977 heartbeat IPC: 0.75216 cumulative IPC: 0.661641 (Simulation time: 2 hr 9 min 7 sec) 
Heartbeat CPU 0 instructions: 45000001 cycles: 58516302 heartbeat IPC: 0.752262 cumulative IPC: 0.663926 (Simulation time: 2 hr 12 min 8 sec) 
Heartbeat CPU 0 instructions: 46000003 cycles: 59883710 heartbeat IPC: 0.731312 cumulative IPC: 0.66563 (Simulation time: 2 hr 14 min 54 sec) 
Heartbeat CPU 0 instructions: 47000001 cycles: 60991753 heartbeat IPC: 0.90249 cumulative IPC: 0.670385 (Simulation time: 2 hr 17 min 19 sec) 
Heartbeat CPU 0 instructions: 48000000 cycles: 62321215 heartbeat IPC: 0.752183 cumulative IPC: 0.672309 (Simulation time: 2 hr 19 min 50 sec) 
Heartbeat CPU 0 instructions: 49000003 cycles: 71893729 heartbeat IPC: 0.104466 cumulative IPC: 0.590067 (Simulation time: 2 hr 24 min 58 sec) 
Heartbeat CPU 0 instructions: 50000001 cycles: 73731002 heartbeat IPC: 0.544284 cumulative IPC: 0.588829 (Simulation time: 2 hr 28 min 5 sec) 
Heartbeat CPU 0 instructions: 51000003 cycles: 75363158 heartbeat IPC: 0.612688 cumulative IPC: 0.589389 (Simulation time: 2 hr 30 min 53 sec) 
Heartbeat CPU 0 instructions: 52000000 cycles: 77006970 heartbeat IPC: 0.60834 cumulative IPC: 0.589826 (Simulation time: 2 hr 33 min 57 sec) 
Heartbeat CPU 0 instructions: 53000000 cycles: 78634963 heartbeat IPC: 0.614253 cumulative IPC: 0.590372 (Simulation time: 2 hr 36 min 52 sec) 
Heartbeat CPU 0 instructions: 54000000 cycles: 80265308 heartbeat IPC: 0.613367 cumulative IPC: 0.590876 (Simulation time: 2 hr 39 min 59 sec) 
Heartbeat CPU 0 instructions: 55000002 cycles: 81887393 heartbeat IPC: 0.616492 cumulative IPC: 0.591422 (Simulation time: 2 hr 43 min 19 sec) 
Heartbeat CPU 0 instructions: 56000000 cycles: 83518025 heartbeat IPC: 0.613258 cumulative IPC: 0.59188 (Simulation time: 2 hr 46 min 54 sec) 
Heartbeat CPU 0 instructions: 57000002 cycles: 85174862 heartbeat IPC: 0.603561 cumulative IPC: 0.592124 (Simulation time: 2 hr 50 min 1 sec) 
Heartbeat CPU 0 instructions: 58000002 cycles: 86817911 heartbeat IPC: 0.608625 cumulative IPC: 0.592459 (Simulation time: 2 hr 53 min 53 sec) 
Heartbeat CPU 0 instructions: 59000001 cycles: 88452604 heartbeat IPC: 0.611735 cumulative IPC: 0.59284 (Simulation time: 2 hr 57 min 8 sec) 
Heartbeat CPU 0 instructions: 60000000 cycles: 90078272 heartbeat IPC: 0.615131 cumulative IPC: 0.59327 (Simulation time: 3 hr 0 min 14 sec) 
Heartbeat CPU 0 instructions: 61000000 cycles: 91671666 heartbeat IPC: 0.627591 cumulative IPC: 0.593907 (Simulation time: 3 hr 3 min 22 sec) 
Heartbeat CPU 0 instructions: 62000003 cycles: 93267548 heartbeat IPC: 0.626615 cumulative IPC: 0.594503 (Simulation time: 3 hr 6 min 20 sec) 
Heartbeat CPU 0 instructions: 63000002 cycles: 94884556 heartbeat IPC: 0.618425 cumulative IPC: 0.594938 (Simulation time: 3 hr 9 min 2 sec) 
Heartbeat CPU 0 instructions: 64000000 cycles: 96514178 heartbeat IPC: 0.613638 cumulative IPC: 0.595274 (Simulation time: 3 hr 12 min 7 sec) 
Heartbeat CPU 0 instructions: 65000003 cycles: 98164146 heartbeat IPC: 0.606074 cumulative IPC: 0.595466 (Simulation time: 3 hr 15 min 6 sec) 
Heartbeat CPU 0 instructions: 66000001 cycles: 99818430 heartbeat IPC: 0.60449 cumulative IPC: 0.595625 (Simulation time: 3 hr 18 min 15 sec) 
Heartbeat CPU 0 instructions: 67000001 cycles: 101442930 heartbeat IPC: 0.615574 cumulative IPC: 0.595964 (Simulation time: 3 hr 21 min 36 sec) 
Heartbeat CPU 0 instructions: 68000000 cycles: 103083715 heartbeat IPC: 0.609464 cumulative IPC: 0.596192 (Simulation time: 3 hr 24 min 32 sec) 
Heartbeat CPU 0 instructions: 69000000 cycles: 104712200 heartbeat IPC: 0.614068 cumulative IPC: 0.596486 (Simulation time: 3 hr 27 min 23 sec) 
Heartbeat CPU 0 instructions: 70000003 cycles: 106305909 heartbeat IPC: 0.627469 cumulative IPC: 0.596977 (Simulation time: 3 hr 30 min 6 sec) 
Heartbeat CPU 0 instructions: 71000003 cycles: 107946571 heartbeat IPC: 0.60951 cumulative IPC: 0.597179 (Simulation time: 3 hr 32 min 59 sec) 
Heartbeat CPU 0 instructions: 72000000 cycles: 109545778 heartbeat IPC: 0.625308 cumulative IPC: 0.597612 (Simulation time: 3 hr 35 min 53 sec) 
Heartbeat CPU 0 instructions: 73000002 cycles: 111177873 heartbeat IPC: 0.612711 cumulative IPC: 0.597846 (Simulation time: 3 hr 38 min 52 sec) 
Heartbeat CPU 0 instructions: 74000000 cycles: 112815018 heartbeat IPC: 0.610818 cumulative IPC: 0.598045 (Simulation time: 3 hr 42 min 5 sec) 
Heartbeat CPU 0 instructions: 75000000 cycles: 114456236 heartbeat IPC: 0.609304 cumulative IPC: 0.598215 (Simulation time: 3 hr 45 min 6 sec) 
Heartbeat CPU 0 instructions: 76000000 cycles: 116056022 heartbeat IPC: 0.625084 cumulative IPC: 0.598605 (Simulation time: 3 hr 47 min 51 sec) 
Heartbeat CPU 0 instructions: 77000002 cycles: 117699797 heartbeat IPC: 0.608357 cumulative IPC: 0.598748 (Simulation time: 3 hr 50 min 45 sec) 
Heartbeat CPU 0 instructions: 78000001 cycles: 119309724 heartbeat IPC: 0.621146 cumulative IPC: 0.599065 (Simulation time: 3 hr 53 min 33 sec) 
Heartbeat CPU 0 instructions: 79000001 cycles: 120911001 heartbeat IPC: 0.624502 cumulative IPC: 0.599419 (Simulation time: 3 hr 56 min 25 sec) 
Heartbeat CPU 0 instructions: 80000000 cycles: 122524153 heartbeat IPC: 0.619904 cumulative IPC: 0.599702 (Simulation time: 3 hr 59 min 22 sec) 
Heartbeat CPU 0 instructions: 81000001 cycles: 124139074 heartbeat IPC: 0.619226 cumulative IPC: 0.599969 (Simulation time: 4 hr 2 min 15 sec) 
Heartbeat CPU 0 instructions: 82000000 cycles: 125754374 heartbeat IPC: 0.619079 cumulative IPC: 0.600226 (Simulation time: 4 hr 4 min 56 sec) 
Heartbeat CPU 0 instructions: 83000003 cycles: 127355881 heartbeat IPC: 0.624414 cumulative IPC: 0.600545 (Simulation time: 4 hr 7 min 36 sec) 
Heartbeat CPU 0 instructions: 84000000 cycles: 128960272 heartbeat IPC: 0.623288 cumulative IPC: 0.600841 (Simulation time: 4 hr 10 min 7 sec) 
Heartbeat CPU 0 instructions: 85000001 cycles: 130588494 heartbeat IPC: 0.614167 cumulative IPC: 0.601015 (Simulation time: 4 hr 12 min 42 sec) 
Heartbeat CPU 0 instructions: 86000002 cycles: 132210702 heartbeat IPC: 0.616444 cumulative IPC: 0.601213 (Simulation time: 4 hr 15 min 19 sec) 
Heartbeat CPU 0 instructions: 87000002 cycles: 133824584 heartbeat IPC: 0.619624 cumulative IPC: 0.601445 (Simulation time: 4 hr 17 min 43 sec) 
Heartbeat CPU 0 instructions: 88000000 cycles: 135458812 heartbeat IPC: 0.611908 cumulative IPC: 0.601577 (Simulation time: 4 hr 19 min 59 sec) 
Heartbeat CPU 0 instructions: 89000003 cycles: 137102693 heartbeat IPC: 0.608318 cumulative IPC: 0.601661 (Simulation time: 4 hr 22 min 19 sec) 
Heartbeat CPU 0 instructions: 90000000 cycles: 138758689 heartbeat IPC: 0.603864 cumulative IPC: 0.601689 (Simulation time: 4 hr 24 min 26 sec) 
Heartbeat CPU 0 instructions: 91000002 cycles: 140404779 heartbeat IPC: 0.607501 cumulative IPC: 0.60176 (Simulation time: 4 hr 26 min 23 sec) 
Heartbeat CPU 0 instructions: 92000000 cycles: 142029439 heartbeat IPC: 0.615512 cumulative IPC: 0.601924 (Simulation time: 4 hr 28 min 11 sec) 
Heartbeat CPU 0 instructions: 93000002 cycles: 143662155 heartbeat IPC: 0.612478 cumulative IPC: 0.602049 (Simulation time: 4 hr 29 min 53 sec) 
Heartbeat CPU 0 instructions: 94000003 cycles: 145266873 heartbeat IPC: 0.623163 cumulative IPC: 0.602292 (Simulation time: 4 hr 31 min 27 sec) 
Heartbeat CPU 0 instructions: 95000000 cycles: 146860197 heartbeat IPC: 0.627617 cumulative IPC: 0.602578 (Simulation time: 4 hr 32 min 54 sec) 
Heartbeat CPU 0 instructions: 96000000 cycles: 148475362 heartbeat IPC: 0.619132 cumulative IPC: 0.602765 (Simulation time: 4 hr 34 min 17 sec) 
Heartbeat CPU 0 instructions: 97000002 cycles: 150092702 heartbeat IPC: 0.6183 cumulative IPC: 0.602939 (Simulation time: 4 hr 35 min 44 sec) 
Heartbeat CPU 0 instructions: 98000000 cycles: 151726087 heartbeat IPC: 0.612224 cumulative IPC: 0.603043 (Simulation time: 4 hr 37 min 4 sec) 
Heartbeat CPU 0 instructions: 99000001 cycles: 153320821 heartbeat IPC: 0.627064 cumulative IPC: 0.603303 (Simulation time: 4 hr 38 min 28 sec) 
Heartbeat CPU 0 instructions: 100000000 cycles: 154952600 heartbeat IPC: 0.612827 cumulative IPC: 0.603407 (Simulation time: 4 hr 39 min 47 sec) 
Heartbeat CPU 0 instructions: 101000001 cycles: 156589311 heartbeat IPC: 0.610982 cumulative IPC: 0.603489 (Simulation time: 4 hr 41 min 2 sec) 
Heartbeat CPU 0 instructions: 102000000 cycles: 158216652 heartbeat IPC: 0.614499 cumulative IPC: 0.603607 (Simulation time: 4 hr 42 min 3 sec) 
Heartbeat CPU 0 instructions: 103000000 cycles: 159828624 heartbeat IPC: 0.620358 cumulative IPC: 0.603782 (Simulation time: 4 hr 43 min 3 sec) 
Heartbeat CPU 0 instructions: 104000000 cycles: 161454610 heartbeat IPC: 0.615011 cumulative IPC: 0.6039 (Simulation time: 4 hr 43 min 50 sec) 
Heartbeat CPU 0 instructions: 105000000 cycles: 163093843 heartbeat IPC: 0.610041 cumulative IPC: 0.603964 (Simulation time: 4 hr 44 min 42 sec) 
Heartbeat CPU 0 instructions: 106000001 cycles: 164721832 heartbeat IPC: 0.614255 cumulative IPC: 0.604069 (Simulation time: 4 hr 45 min 26 sec) 
Heartbeat CPU 0 instructions: 107000001 cycles: 166350050 heartbeat IPC: 0.614168 cumulative IPC: 0.604171 (Simulation time: 4 hr 46 min 9 sec) 
Heartbeat CPU 0 instructions: 108000000 cycles: 167975212 heartbeat IPC: 0.615323 cumulative IPC: 0.604283 (Simulation time: 4 hr 46 min 54 sec) 
Heartbeat CPU 0 instructions: 109000003 cycles: 169558402 heartbeat IPC: 0.631638 cumulative IPC: 0.604548 (Simulation time: 4 hr 47 min 34 sec) 
Heartbeat CPU 0 instructions: 110000002 cycles: 171178209 heartbeat IPC: 0.617357 cumulative IPC: 0.604673 (Simulation time: 4 hr 48 min 18 sec) 
Finished CPU 0 instructions: 100000001 cycles: 165378627 cummulative IPC: 0.604673 (Simulation time: 4 hr 48 min 18 sec) 

ChampSim completed all CPUs

Region of Interest Statistics

CPU 0 cummulative IPC: 0.604673 instructions: 100000001 cycles: 165378627
LLC TOTAL     ACCESS:    4814865  HIT:     267495  MISS:    4547370
LLC LOAD      ACCESS:     462259  HIT:      19983  MISS:     442276
LLC RFO       ACCESS:     126469  HIT:      76177  MISS:      50292
LLC PREFETCH  ACCESS:    2861843  HIT:      74384  MISS:    2787459
LLC WRITEBACK ACCESS:    1364294  HIT:      96951  MISS:    1267343
