
*** ChampSim Multicore Out-of-Order Simulator ***

Warmup Instructions: 10000000
Simulation Instructions: 100000000
Configuration: 2
Number of CPUs: 1
LLC sets: 2048
LLC ways: 16
Off-chip DRAM Channels: 1 Width: 64-bit Data Rate: 1600 MT/s

CPU 0 runs /datasets/cs240c-wi22-a00-public/data/Assignment2-gz/leslie3d_1186B.trace.gz
CPU 0 L1D next line prefetcher
CPU 0 L2C IP-based stride prefetcher
config 2, num_core 1, llc_sets 2048
Heartbeat CPU 0 instructions: 1000002 cycles: 564510 heartbeat IPC: 1.77145 cumulative IPC: 1.77145 (Simulation time: 0 hr 3 min 4 sec) 
Heartbeat CPU 0 instructions: 2000000 cycles: 1215849 heartbeat IPC: 1.5353 cumulative IPC: 1.64494 (Simulation time: 0 hr 6 min 4 sec) 
Heartbeat CPU 0 instructions: 3000000 cycles: 1867614 heartbeat IPC: 1.5343 cumulative IPC: 1.60633 (Simulation time: 0 hr 9 min 7 sec) 
Heartbeat CPU 0 instructions: 4000000 cycles: 2473202 heartbeat IPC: 1.65129 cumulative IPC: 1.61734 (Simulation time: 0 hr 11 min 57 sec) 
Heartbeat CPU 0 instructions: 5000000 cycles: 3083581 heartbeat IPC: 1.63833 cumulative IPC: 1.62149 (Simulation time: 0 hr 14 min 36 sec) 
Heartbeat CPU 0 instructions: 6000000 cycles: 3735379 heartbeat IPC: 1.53422 cumulative IPC: 1.60626 (Simulation time: 0 hr 17 min 25 sec) 
Heartbeat CPU 0 instructions: 7000001 cycles: 4386671 heartbeat IPC: 1.53541 cumulative IPC: 1.59574 (Simulation time: 0 hr 20 min 27 sec) 
Heartbeat CPU 0 instructions: 8000000 cycles: 4951305 heartbeat IPC: 1.77106 cumulative IPC: 1.61574 (Simulation time: 0 hr 23 min 17 sec) 
Heartbeat CPU 0 instructions: 9000003 cycles: 5602644 heartbeat IPC: 1.5353 cumulative IPC: 1.60638 (Simulation time: 0 hr 26 min 15 sec) 
Heartbeat CPU 0 instructions: 10000001 cycles: 6253796 heartbeat IPC: 1.53574 cumulative IPC: 1.59903 (Simulation time: 0 hr 29 min 13 sec) 

Warmup complete CPU 0 instructions: 10000001 cycles: 6253796 (Simulation time: 0 hr 29 min 13 sec) 

Heartbeat CPU 0 instructions: 11000001 cycles: 7627165 heartbeat IPC: 0.728136 cumulative IPC: 0.728136 (Simulation time: 0 hr 32 min 15 sec) 
Heartbeat CPU 0 instructions: 12000000 cycles: 8867558 heartbeat IPC: 0.806195 cumulative IPC: 0.76518 (Simulation time: 0 hr 35 min 11 sec) 
Heartbeat CPU 0 instructions: 13000000 cycles: 10095695 heartbeat IPC: 0.814241 cumulative IPC: 0.780864 (Simulation time: 0 hr 38 min 18 sec) 
Heartbeat CPU 0 instructions: 14000000 cycles: 11345440 heartbeat IPC: 0.800163 cumulative IPC: 0.785601 (Simulation time: 0 hr 41 min 13 sec) 
Heartbeat CPU 0 instructions: 15000002 cycles: 12734206 heartbeat IPC: 0.720065 cumulative IPC: 0.771556 (Simulation time: 0 hr 43 min 55 sec) 
Heartbeat CPU 0 instructions: 16000000 cycles: 13957111 heartbeat IPC: 0.817723 cumulative IPC: 0.778885 (Simulation time: 0 hr 46 min 45 sec) 
Heartbeat CPU 0 instructions: 17000000 cycles: 15173863 heartbeat IPC: 0.82186 cumulative IPC: 0.784747 (Simulation time: 0 hr 49 min 28 sec) 
Heartbeat CPU 0 instructions: 18000001 cycles: 16588330 heartbeat IPC: 0.706981 cumulative IPC: 0.774104 (Simulation time: 0 hr 52 min 20 sec) 
Heartbeat CPU 0 instructions: 19000003 cycles: 17835724 heartbeat IPC: 0.801673 cumulative IPC: 0.777073 (Simulation time: 0 hr 55 min 20 sec) 
Heartbeat CPU 0 instructions: 20000000 cycles: 19074879 heartbeat IPC: 0.806999 cumulative IPC: 0.779965 (Simulation time: 0 hr 58 min 27 sec) 
Heartbeat CPU 0 instructions: 21000003 cycles: 20396772 heartbeat IPC: 0.756493 cumulative IPC: 0.777771 (Simulation time: 1 hr 1 min 21 sec) 
Heartbeat CPU 0 instructions: 22000003 cycles: 21722316 heartbeat IPC: 0.754407 cumulative IPC: 0.775769 (Simulation time: 1 hr 4 min 10 sec) 
Heartbeat CPU 0 instructions: 23000002 cycles: 22939943 heartbeat IPC: 0.821269 cumulative IPC: 0.779089 (Simulation time: 1 hr 7 min 14 sec) 
Heartbeat CPU 0 instructions: 24000000 cycles: 24150078 heartbeat IPC: 0.826352 cumulative IPC: 0.782285 (Simulation time: 1 hr 10 min 11 sec) 
Heartbeat CPU 0 instructions: 25000000 cycles: 25560116 heartbeat IPC: 0.709201 cumulative IPC: 0.776948 (Simulation time: 1 hr 12 min 49 sec) 
Heartbeat CPU 0 instructions: 26000000 cycles: 26784310 heartbeat IPC: 0.816864 cumulative IPC: 0.779328 (Simulation time: 1 hr 15 min 50 sec) 
Heartbeat CPU 0 instructions: 27000000 cycles: 28005407 heartbeat IPC: 0.818936 cumulative IPC: 0.781551 (Simulation time: 1 hr 18 min 48 sec) 
Heartbeat CPU 0 instructions: 28000000 cycles: 29422250 heartbeat IPC: 0.705795 cumulative IPC: 0.776918 (Simulation time: 1 hr 21 min 51 sec) 
Heartbeat CPU 0 instructions: 29000002 cycles: 30663063 heartbeat IPC: 0.805925 cumulative IPC: 0.778393 (Simulation time: 1 hr 24 min 35 sec) 
Heartbeat CPU 0 instructions: 30000002 cycles: 31886610 heartbeat IPC: 0.817296 cumulative IPC: 0.78025 (Simulation time: 1 hr 27 min 18 sec) 
Heartbeat CPU 0 instructions: 31000002 cycles: 33142429 heartbeat IPC: 0.796293 cumulative IPC: 0.780999 (Simulation time: 1 hr 29 min 59 sec) 
Heartbeat CPU 0 instructions: 32000000 cycles: 34510545 heartbeat IPC: 0.730931 cumulative IPC: 0.778575 (Simulation time: 1 hr 32 min 53 sec) 
Heartbeat CPU 0 instructions: 33000000 cycles: 35713567 heartbeat IPC: 0.83124 cumulative IPC: 0.780726 (Simulation time: 1 hr 35 min 45 sec) 
Heartbeat CPU 0 instructions: 34000000 cycles: 36923314 heartbeat IPC: 0.826619 cumulative IPC: 0.782536 (Simulation time: 1 hr 38 min 30 sec) 
Heartbeat CPU 0 instructions: 35000000 cycles: 38347571 heartbeat IPC: 0.70212 cumulative IPC: 0.778967 (Simulation time: 1 hr 41 min 9 sec) 
Heartbeat CPU 0 instructions: 36000000 cycles: 39580927 heartbeat IPC: 0.810796 cumulative IPC: 0.780145 (Simulation time: 1 hr 44 min 5 sec) 
Heartbeat CPU 0 instructions: 37000003 cycles: 40814932 heartbeat IPC: 0.810372 cumulative IPC: 0.781224 (Simulation time: 1 hr 46 min 52 sec) 
Heartbeat CPU 0 instructions: 38000003 cycles: 42154111 heartbeat IPC: 0.746726 cumulative IPC: 0.779938 (Simulation time: 1 hr 49 min 24 sec) 
Heartbeat CPU 0 instructions: 39000001 cycles: 43447049 heartbeat IPC: 0.773431 cumulative IPC: 0.779711 (Simulation time: 1 hr 52 min 9 sec) 
Heartbeat CPU 0 instructions: 40000000 cycles: 44669663 heartbeat IPC: 0.817919 cumulative IPC: 0.780927 (Simulation time: 1 hr 55 min 8 sec) 
Heartbeat CPU 0 instructions: 41000000 cycles: 45873672 heartbeat IPC: 0.830559 cumulative IPC: 0.782436 (Simulation time: 1 hr 58 min 9 sec) 
Heartbeat CPU 0 instructions: 42000000 cycles: 47290344 heartbeat IPC: 0.70588 cumulative IPC: 0.779793 (Simulation time: 2 hr 0 min 42 sec) 
Heartbeat CPU 0 instructions: 43000002 cycles: 48490334 heartbeat IPC: 0.833342 cumulative IPC: 0.781314 (Simulation time: 2 hr 3 min 35 sec) 
Heartbeat CPU 0 instructions: 44000000 cycles: 49706129 heartbeat IPC: 0.822505 cumulative IPC: 0.782467 (Simulation time: 2 hr 6 min 36 sec) 
Heartbeat CPU 0 instructions: 45000001 cycles: 51161118 heartbeat IPC: 0.687291 cumulative IPC: 0.779383 (Simulation time: 2 hr 9 min 31 sec) 
Heartbeat CPU 0 instructions: 46000001 cycles: 53150689 heartbeat IPC: 0.502621 cumulative IPC: 0.767641 (Simulation time: 2 hr 12 min 45 sec) 
Heartbeat CPU 0 instructions: 47000002 cycles: 55090618 heartbeat IPC: 0.515483 cumulative IPC: 0.757625 (Simulation time: 2 hr 15 min 48 sec) 
Heartbeat CPU 0 instructions: 48000000 cycles: 57068619 heartbeat IPC: 0.50556 cumulative IPC: 0.747813 (Simulation time: 2 hr 18 min 58 sec) 
Heartbeat CPU 0 instructions: 49000002 cycles: 59056186 heartbeat IPC: 0.503129 cumulative IPC: 0.738603 (Simulation time: 2 hr 22 min 12 sec) 
Heartbeat CPU 0 instructions: 50000002 cycles: 61011544 heartbeat IPC: 0.511415 cumulative IPC: 0.73049 (Simulation time: 2 hr 25 min 30 sec) 
Heartbeat CPU 0 instructions: 51000002 cycles: 62984228 heartbeat IPC: 0.506924 cumulative IPC: 0.722716 (Simulation time: 2 hr 28 min 32 sec) 
Heartbeat CPU 0 instructions: 52000000 cycles: 64924363 heartbeat IPC: 0.515427 cumulative IPC: 0.715861 (Simulation time: 2 hr 31 min 31 sec) 
Heartbeat CPU 0 instructions: 53000003 cycles: 66895662 heartbeat IPC: 0.507281 cumulative IPC: 0.709081 (Simulation time: 2 hr 34 min 39 sec) 
Heartbeat CPU 0 instructions: 54000003 cycles: 68871474 heartbeat IPC: 0.506121 cumulative IPC: 0.702677 (Simulation time: 2 hr 37 min 44 sec) 
Heartbeat CPU 0 instructions: 55000001 cycles: 70955780 heartbeat IPC: 0.479775 cumulative IPC: 0.695496 (Simulation time: 2 hr 40 min 39 sec) 
Heartbeat CPU 0 instructions: 56000000 cycles: 73250016 heartbeat IPC: 0.435875 cumulative IPC: 0.686606 (Simulation time: 2 hr 43 min 47 sec) 
Heartbeat CPU 0 instructions: 57000003 cycles: 75485285 heartbeat IPC: 0.447375 cumulative IPC: 0.678882 (Simulation time: 2 hr 46 min 44 sec) 
Heartbeat CPU 0 instructions: 58000001 cycles: 77806806 heartbeat IPC: 0.430751 cumulative IPC: 0.670831 (Simulation time: 2 hr 49 min 29 sec) 
Heartbeat CPU 0 instructions: 59000003 cycles: 80076660 heartbeat IPC: 0.440558 cumulative IPC: 0.663751 (Simulation time: 2 hr 52 min 40 sec) 
Heartbeat CPU 0 instructions: 60000000 cycles: 82364864 heartbeat IPC: 0.437023 cumulative IPC: 0.656935 (Simulation time: 2 hr 56 min 5 sec) 
Heartbeat CPU 0 instructions: 61000003 cycles: 84636761 heartbeat IPC: 0.440162 cumulative IPC: 0.650652 (Simulation time: 2 hr 59 min 44 sec) 
Heartbeat CPU 0 instructions: 62000001 cycles: 86894241 heartbeat IPC: 0.442971 cumulative IPC: 0.644838 (Simulation time: 3 hr 3 min 21 sec) 
Heartbeat CPU 0 instructions: 63000000 cycles: 88835858 heartbeat IPC: 0.515034 cumulative IPC: 0.641786 (Simulation time: 3 hr 6 min 27 sec) 
Heartbeat CPU 0 instructions: 64000000 cycles: 90156160 heartbeat IPC: 0.757402 cumulative IPC: 0.643605 (Simulation time: 3 hr 9 min 16 sec) 
Heartbeat CPU 0 instructions: 65000000 cycles: 91519829 heartbeat IPC: 0.733316 cumulative IPC: 0.64504 (Simulation time: 3 hr 12 min 14 sec) 
Heartbeat CPU 0 instructions: 66000002 cycles: 92869111 heartbeat IPC: 0.741136 cumulative IPC: 0.646537 (Simulation time: 3 hr 15 min 1 sec) 
Heartbeat CPU 0 instructions: 67000000 cycles: 94211089 heartbeat IPC: 0.745167 cumulative IPC: 0.648042 (Simulation time: 3 hr 17 min 54 sec) 
Heartbeat CPU 0 instructions: 68000000 cycles: 95586342 heartbeat IPC: 0.727139 cumulative IPC: 0.649259 (Simulation time: 3 hr 21 min 17 sec) 
Heartbeat CPU 0 instructions: 69000000 cycles: 96910482 heartbeat IPC: 0.755207 cumulative IPC: 0.650807 (Simulation time: 3 hr 24 min 10 sec) 
Heartbeat CPU 0 instructions: 70000000 cycles: 98269142 heartbeat IPC: 0.736019 cumulative IPC: 0.652065 (Simulation time: 3 hr 26 min 51 sec) 
Heartbeat CPU 0 instructions: 71000000 cycles: 99583888 heartbeat IPC: 0.760603 cumulative IPC: 0.653594 (Simulation time: 3 hr 29 min 35 sec) 
Heartbeat CPU 0 instructions: 72000000 cycles: 100919425 heartbeat IPC: 0.748762 cumulative IPC: 0.654937 (Simulation time: 3 hr 32 min 22 sec) 
Heartbeat CPU 0 instructions: 73000000 cycles: 102260396 heartbeat IPC: 0.745728 cumulative IPC: 0.656205 (Simulation time: 3 hr 34 min 58 sec) 
Heartbeat CPU 0 instructions: 74000000 cycles: 103577353 heartbeat IPC: 0.759326 cumulative IPC: 0.6576 (Simulation time: 3 hr 37 min 32 sec) 
Heartbeat CPU 0 instructions: 75000003 cycles: 104945876 heartbeat IPC: 0.730717 cumulative IPC: 0.658614 (Simulation time: 3 hr 40 min 38 sec) 
Heartbeat CPU 0 instructions: 76000000 cycles: 106274967 heartbeat IPC: 0.752392 cumulative IPC: 0.65986 (Simulation time: 3 hr 43 min 10 sec) 
Heartbeat CPU 0 instructions: 77000000 cycles: 107645721 heartbeat IPC: 0.729526 cumulative IPC: 0.660802 (Simulation time: 3 hr 45 min 45 sec) 
Heartbeat CPU 0 instructions: 78000001 cycles: 108995254 heartbeat IPC: 0.740998 cumulative IPC: 0.661856 (Simulation time: 3 hr 48 min 29 sec) 
Heartbeat CPU 0 instructions: 79000002 cycles: 110348741 heartbeat IPC: 0.738833 cumulative IPC: 0.662856 (Simulation time: 3 hr 51 min 22 sec) 
Heartbeat CPU 0 instructions: 80000000 cycles: 111726119 heartbeat IPC: 0.726016 cumulative IPC: 0.663681 (Simulation time: 3 hr 54 min 10 sec) 
Heartbeat CPU 0 instructions: 81000000 cycles: 113067275 heartbeat IPC: 0.745625 cumulative IPC: 0.66471 (Simulation time: 3 hr 56 min 51 sec) 
Heartbeat CPU 0 instructions: 82000003 cycles: 114445124 heartbeat IPC: 0.725771 cumulative IPC: 0.665488 (Simulation time: 3 hr 59 min 35 sec) 
Heartbeat CPU 0 instructions: 83000001 cycles: 115794694 heartbeat IPC: 0.740975 cumulative IPC: 0.666418 (Simulation time: 4 hr 2 min 16 sec) 
Heartbeat CPU 0 instructions: 84000000 cycles: 117145076 heartbeat IPC: 0.74053 cumulative IPC: 0.66732 (Simulation time: 4 hr 4 min 41 sec) 
Heartbeat CPU 0 instructions: 85000001 cycles: 118479508 heartbeat IPC: 0.749383 cumulative IPC: 0.668296 (Simulation time: 4 hr 7 min 13 sec) 
Heartbeat CPU 0 instructions: 86000003 cycles: 119819721 heartbeat IPC: 0.746152 cumulative IPC: 0.669215 (Simulation time: 4 hr 9 min 43 sec) 
Heartbeat CPU 0 instructions: 87000001 cycles: 121169207 heartbeat IPC: 0.741021 cumulative IPC: 0.670058 (Simulation time: 4 hr 12 min 18 sec) 
Heartbeat CPU 0 instructions: 88000000 cycles: 122515310 heartbeat IPC: 0.742884 cumulative IPC: 0.670901 (Simulation time: 4 hr 14 min 45 sec) 
Heartbeat CPU 0 instructions: 89000001 cycles: 123873566 heartbeat IPC: 0.736239 cumulative IPC: 0.671656 (Simulation time: 4 hr 17 min 1 sec) 
Heartbeat CPU 0 instructions: 90000002 cycles: 125222305 heartbeat IPC: 0.741434 cumulative IPC: 0.672447 (Simulation time: 4 hr 19 min 6 sec) 
Heartbeat CPU 0 instructions: 91000000 cycles: 126581277 heartbeat IPC: 0.735849 cumulative IPC: 0.673163 (Simulation time: 4 hr 21 min 23 sec) 
Heartbeat CPU 0 instructions: 92000000 cycles: 127918316 heartbeat IPC: 0.747921 cumulative IPC: 0.673984 (Simulation time: 4 hr 23 min 30 sec) 
Heartbeat CPU 0 instructions: 93000002 cycles: 129284984 heartbeat IPC: 0.731708 cumulative IPC: 0.674626 (Simulation time: 4 hr 25 min 23 sec) 
Heartbeat CPU 0 instructions: 94000000 cycles: 130610958 heartbeat IPC: 0.754161 cumulative IPC: 0.675474 (Simulation time: 4 hr 27 min 8 sec) 
Heartbeat CPU 0 instructions: 95000003 cycles: 131938424 heartbeat IPC: 0.753317 cumulative IPC: 0.676296 (Simulation time: 4 hr 28 min 48 sec) 
Heartbeat CPU 0 instructions: 96000000 cycles: 133291036 heartbeat IPC: 0.739308 cumulative IPC: 0.676967 (Simulation time: 4 hr 30 min 20 sec) 
Heartbeat CPU 0 instructions: 97000001 cycles: 134619287 heartbeat IPC: 0.752871 cumulative IPC: 0.677752 (Simulation time: 4 hr 31 min 45 sec) 
Heartbeat CPU 0 instructions: 98000002 cycles: 135981098 heartbeat IPC: 0.734317 cumulative IPC: 0.678346 (Simulation time: 4 hr 33 min 7 sec) 
Heartbeat CPU 0 instructions: 99000000 cycles: 137314385 heartbeat IPC: 0.750025 cumulative IPC: 0.679075 (Simulation time: 4 hr 34 min 28 sec) 
Heartbeat CPU 0 instructions: 100000000 cycles: 138691063 heartbeat IPC: 0.726386 cumulative IPC: 0.679567 (Simulation time: 4 hr 35 min 49 sec) 
Heartbeat CPU 0 instructions: 101000000 cycles: 140040599 heartbeat IPC: 0.740995 cumulative IPC: 0.680187 (Simulation time: 4 hr 37 min 6 sec) 
Heartbeat CPU 0 instructions: 102000001 cycles: 141382422 heartbeat IPC: 0.745256 cumulative IPC: 0.680833 (Simulation time: 4 hr 38 min 27 sec) 
Heartbeat CPU 0 instructions: 103000002 cycles: 142751671 heartbeat IPC: 0.730328 cumulative IPC: 0.681329 (Simulation time: 4 hr 39 min 40 sec) 
Heartbeat CPU 0 instructions: 104000000 cycles: 144077951 heartbeat IPC: 0.753987 cumulative IPC: 0.682028 (Simulation time: 4 hr 40 min 48 sec) 
Heartbeat CPU 0 instructions: 105000001 cycles: 145454598 heartbeat IPC: 0.726403 cumulative IPC: 0.682467 (Simulation time: 4 hr 41 min 46 sec) 
Heartbeat CPU 0 instructions: 106000002 cycles: 146792368 heartbeat IPC: 0.747513 cumulative IPC: 0.683087 (Simulation time: 4 hr 42 min 44 sec) 
Heartbeat CPU 0 instructions: 107000000 cycles: 148142773 heartbeat IPC: 0.740517 cumulative IPC: 0.683633 (Simulation time: 4 hr 43 min 38 sec) 
Heartbeat CPU 0 instructions: 108000000 cycles: 149477654 heartbeat IPC: 0.74913 cumulative IPC: 0.684244 (Simulation time: 4 hr 44 min 26 sec) 
Heartbeat CPU 0 instructions: 109000003 cycles: 150805659 heartbeat IPC: 0.753011 cumulative IPC: 0.684875 (Simulation time: 4 hr 45 min 11 sec) 
Heartbeat CPU 0 instructions: 110000001 cycles: 152172316 heartbeat IPC: 0.731711 cumulative IPC: 0.685314 (Simulation time: 4 hr 45 min 49 sec) 
Finished CPU 0 instructions: 100000000 cycles: 145918520 cummulative IPC: 0.685314 (Simulation time: 4 hr 45 min 49 sec) 

ChampSim completed all CPUs

Region of Interest Statistics

CPU 0 cummulative IPC: 0.685314 instructions: 100000000 cycles: 145918520
LLC TOTAL     ACCESS:    3757510  HIT:     704694  MISS:    3052816
LLC LOAD      ACCESS:     401543  HIT:      72195  MISS:     329348
LLC RFO       ACCESS:     463723  HIT:     188185  MISS:     275538
LLC PREFETCH  ACCESS:    2143103  HIT:     193566  MISS:    1949537
LLC WRITEBACK ACCESS:     749141  HIT:     250748  MISS:     498393
