
*** ChampSim Multicore Out-of-Order Simulator ***

Warmup Instructions: 10000000
Simulation Instructions: 100000000
Configuration: 2
Number of CPUs: 1
LLC sets: 2048
LLC ways: 16
Off-chip DRAM Channels: 1 Width: 64-bit Data Rate: 1600 MT/s

CPU 0 runs /datasets/cs240c-wi22-a00-public/data/Assignment2-gz/perlbench_105B.trace.gz
CPU 0 L1D next line prefetcher
CPU 0 L2C IP-based stride prefetcher
config 2, num_core 1, llc_sets 2048
Heartbeat CPU 0 instructions: 1000000 cycles: 578016 heartbeat IPC: 1.73006 cumulative IPC: 1.73006 (Simulation time: 0 hr 2 min 55 sec) 
Heartbeat CPU 0 instructions: 2000001 cycles: 1164321 heartbeat IPC: 1.7056 cumulative IPC: 1.71774 (Simulation time: 0 hr 5 min 52 sec) 
Heartbeat CPU 0 instructions: 3000001 cycles: 1726557 heartbeat IPC: 1.77861 cumulative IPC: 1.73756 (Simulation time: 0 hr 8 min 19 sec) 
Heartbeat CPU 0 instructions: 4000000 cycles: 2305993 heartbeat IPC: 1.72581 cumulative IPC: 1.73461 (Simulation time: 0 hr 10 min 58 sec) 
Heartbeat CPU 0 instructions: 5000003 cycles: 2884260 heartbeat IPC: 1.72931 cumulative IPC: 1.73355 (Simulation time: 0 hr 13 min 35 sec) 
Heartbeat CPU 0 instructions: 6000003 cycles: 3447519 heartbeat IPC: 1.77538 cumulative IPC: 1.74038 (Simulation time: 0 hr 16 min 7 sec) 
Heartbeat CPU 0 instructions: 7000000 cycles: 4019987 heartbeat IPC: 1.74682 cumulative IPC: 1.7413 (Simulation time: 0 hr 18 min 38 sec) 
Heartbeat CPU 0 instructions: 8000000 cycles: 4598049 heartbeat IPC: 1.72992 cumulative IPC: 1.73987 (Simulation time: 0 hr 21 min 12 sec) 
Heartbeat CPU 0 instructions: 9000000 cycles: 5176571 heartbeat IPC: 1.72854 cumulative IPC: 1.7386 (Simulation time: 0 hr 23 min 46 sec) 
Heartbeat CPU 0 instructions: 10000002 cycles: 5745489 heartbeat IPC: 1.75773 cumulative IPC: 1.7405 (Simulation time: 0 hr 26 min 16 sec) 

Warmup complete CPU 0 instructions: 10000002 cycles: 5745489 (Simulation time: 0 hr 26 min 16 sec) 

Heartbeat CPU 0 instructions: 11000002 cycles: 8079760 heartbeat IPC: 0.428399 cumulative IPC: 0.428399 (Simulation time: 0 hr 29 min 53 sec) 
Heartbeat CPU 0 instructions: 12000000 cycles: 10435599 heartbeat IPC: 0.424476 cumulative IPC: 0.426429 (Simulation time: 0 hr 33 min 12 sec) 
Heartbeat CPU 0 instructions: 13000000 cycles: 12866632 heartbeat IPC: 0.411348 cumulative IPC: 0.42128 (Simulation time: 0 hr 36 min 39 sec) 
Heartbeat CPU 0 instructions: 14000000 cycles: 15244606 heartbeat IPC: 0.420526 cumulative IPC: 0.421092 (Simulation time: 0 hr 40 min 2 sec) 
Heartbeat CPU 0 instructions: 15000000 cycles: 17595618 heartbeat IPC: 0.425349 cumulative IPC: 0.421936 (Simulation time: 0 hr 43 min 32 sec) 
Heartbeat CPU 0 instructions: 16000000 cycles: 19976093 heartbeat IPC: 0.420084 cumulative IPC: 0.421626 (Simulation time: 0 hr 47 min 2 sec) 
Heartbeat CPU 0 instructions: 17000003 cycles: 22368505 heartbeat IPC: 0.417989 cumulative IPC: 0.421103 (Simulation time: 0 hr 50 min 20 sec) 
Heartbeat CPU 0 instructions: 18000000 cycles: 24612402 heartbeat IPC: 0.445652 cumulative IPC: 0.424023 (Simulation time: 0 hr 54 min 1 sec) 
Heartbeat CPU 0 instructions: 19000000 cycles: 27117282 heartbeat IPC: 0.399221 cumulative IPC: 0.421116 (Simulation time: 0 hr 57 min 22 sec) 
Heartbeat CPU 0 instructions: 20000000 cycles: 29620732 heartbeat IPC: 0.399449 cumulative IPC: 0.418844 (Simulation time: 1 hr 0 min 47 sec) 
Heartbeat CPU 0 instructions: 21000001 cycles: 32122235 heartbeat IPC: 0.39976 cumulative IPC: 0.417034 (Simulation time: 1 hr 4 min 34 sec) 
Heartbeat CPU 0 instructions: 22000001 cycles: 34618056 heartbeat IPC: 0.40067 cumulative IPC: 0.415619 (Simulation time: 1 hr 8 min 2 sec) 
Heartbeat CPU 0 instructions: 23000000 cycles: 37109945 heartbeat IPC: 0.401302 cumulative IPC: 0.414482 (Simulation time: 1 hr 11 min 17 sec) 
Heartbeat CPU 0 instructions: 24000000 cycles: 39592832 heartbeat IPC: 0.402757 cumulative IPC: 0.413622 (Simulation time: 1 hr 14 min 45 sec) 
Heartbeat CPU 0 instructions: 25000001 cycles: 42055416 heartbeat IPC: 0.406078 cumulative IPC: 0.41311 (Simulation time: 1 hr 18 min 13 sec) 
Heartbeat CPU 0 instructions: 26000001 cycles: 44327979 heartbeat IPC: 0.440032 cumulative IPC: 0.414696 (Simulation time: 1 hr 21 min 35 sec) 
Heartbeat CPU 0 instructions: 27000003 cycles: 46822809 heartbeat IPC: 0.40083 cumulative IPC: 0.413854 (Simulation time: 1 hr 25 min 12 sec) 
Heartbeat CPU 0 instructions: 28000000 cycles: 49326095 heartbeat IPC: 0.399474 cumulative IPC: 0.413028 (Simulation time: 1 hr 29 min 3 sec) 
Heartbeat CPU 0 instructions: 29000001 cycles: 51827756 heartbeat IPC: 0.399735 cumulative IPC: 0.412306 (Simulation time: 1 hr 32 min 35 sec) 
Heartbeat CPU 0 instructions: 30000001 cycles: 54325160 heartbeat IPC: 0.400416 cumulative IPC: 0.411695 (Simulation time: 1 hr 36 min 13 sec) 
Heartbeat CPU 0 instructions: 31000000 cycles: 56816976 heartbeat IPC: 0.401313 cumulative IPC: 0.411188 (Simulation time: 1 hr 39 min 39 sec) 
Heartbeat CPU 0 instructions: 32000000 cycles: 59302103 heartbeat IPC: 0.402394 cumulative IPC: 0.41078 (Simulation time: 1 hr 43 min 8 sec) 
Heartbeat CPU 0 instructions: 33000001 cycles: 61770175 heartbeat IPC: 0.405175 cumulative IPC: 0.410533 (Simulation time: 1 hr 46 min 46 sec) 
Heartbeat CPU 0 instructions: 34000002 cycles: 64180929 heartbeat IPC: 0.414808 cumulative IPC: 0.41071 (Simulation time: 1 hr 50 min 5 sec) 
Heartbeat CPU 0 instructions: 35000002 cycles: 66644254 heartbeat IPC: 0.405955 cumulative IPC: 0.410517 (Simulation time: 1 hr 53 min 16 sec) 
Heartbeat CPU 0 instructions: 36000000 cycles: 69272266 heartbeat IPC: 0.380515 cumulative IPC: 0.409276 (Simulation time: 1 hr 56 min 31 sec) 
Heartbeat CPU 0 instructions: 37000001 cycles: 72349282 heartbeat IPC: 0.324991 cumulative IPC: 0.405382 (Simulation time: 2 hr 0 min 46 sec) 
Heartbeat CPU 0 instructions: 38000000 cycles: 75155049 heartbeat IPC: 0.356408 cumulative IPC: 0.403403 (Simulation time: 2 hr 4 min 9 sec) 
Heartbeat CPU 0 instructions: 39000000 cycles: 78043040 heartbeat IPC: 0.346261 cumulative IPC: 0.40112 (Simulation time: 2 hr 7 min 38 sec) 
Heartbeat CPU 0 instructions: 40000000 cycles: 80749072 heartbeat IPC: 0.369545 cumulative IPC: 0.399981 (Simulation time: 2 hr 10 min 43 sec) 
Heartbeat CPU 0 instructions: 41000000 cycles: 83393397 heartbeat IPC: 0.378168 cumulative IPC: 0.399238 (Simulation time: 2 hr 13 min 49 sec) 
Heartbeat CPU 0 instructions: 42000002 cycles: 86028777 heartbeat IPC: 0.379453 cumulative IPC: 0.398589 (Simulation time: 2 hr 16 min 56 sec) 
Heartbeat CPU 0 instructions: 43000000 cycles: 88691317 heartbeat IPC: 0.37558 cumulative IPC: 0.39785 (Simulation time: 2 hr 20 min 7 sec) 
Heartbeat CPU 0 instructions: 44000000 cycles: 91311230 heartbeat IPC: 0.381692 cumulative IPC: 0.397355 (Simulation time: 2 hr 23 min 14 sec) 
Heartbeat CPU 0 instructions: 45000001 cycles: 93951613 heartbeat IPC: 0.378733 cumulative IPC: 0.396798 (Simulation time: 2 hr 26 min 26 sec) 
Heartbeat CPU 0 instructions: 46000003 cycles: 96566774 heartbeat IPC: 0.382386 cumulative IPC: 0.396383 (Simulation time: 2 hr 29 min 16 sec) 
Heartbeat CPU 0 instructions: 47000002 cycles: 99176128 heartbeat IPC: 0.383236 cumulative IPC: 0.396016 (Simulation time: 2 hr 32 min 35 sec) 
Heartbeat CPU 0 instructions: 48000000 cycles: 101768079 heartbeat IPC: 0.385809 cumulative IPC: 0.39574 (Simulation time: 2 hr 35 min 29 sec) 
Heartbeat CPU 0 instructions: 49000002 cycles: 104364334 heartbeat IPC: 0.385171 cumulative IPC: 0.395462 (Simulation time: 2 hr 38 min 41 sec) 
Heartbeat CPU 0 instructions: 50000002 cycles: 106966364 heartbeat IPC: 0.384315 cumulative IPC: 0.395175 (Simulation time: 2 hr 41 min 33 sec) 
Heartbeat CPU 0 instructions: 51000003 cycles: 109574304 heartbeat IPC: 0.383445 cumulative IPC: 0.394881 (Simulation time: 2 hr 44 min 27 sec) 
Heartbeat CPU 0 instructions: 52000000 cycles: 112162284 heartbeat IPC: 0.386401 cumulative IPC: 0.394675 (Simulation time: 2 hr 47 min 30 sec) 
Heartbeat CPU 0 instructions: 53000000 cycles: 114740353 heartbeat IPC: 0.387887 cumulative IPC: 0.394514 (Simulation time: 2 hr 50 min 29 sec) 
Heartbeat CPU 0 instructions: 54000000 cycles: 117356832 heartbeat IPC: 0.382193 cumulative IPC: 0.394225 (Simulation time: 2 hr 53 min 32 sec) 
Heartbeat CPU 0 instructions: 55000003 cycles: 119918854 heartbeat IPC: 0.390318 cumulative IPC: 0.394137 (Simulation time: 2 hr 56 min 32 sec) 
Heartbeat CPU 0 instructions: 56000000 cycles: 122319370 heartbeat IPC: 0.416576 cumulative IPC: 0.3946 (Simulation time: 2 hr 59 min 34 sec) 
Heartbeat CPU 0 instructions: 57000002 cycles: 124594654 heartbeat IPC: 0.439506 cumulative IPC: 0.395459 (Simulation time: 3 hr 2 min 36 sec) 
Heartbeat CPU 0 instructions: 58000001 cycles: 125937522 heartbeat IPC: 0.744674 cumulative IPC: 0.399361 (Simulation time: 3 hr 5 min 15 sec) 
Heartbeat CPU 0 instructions: 59000002 cycles: 128208013 heartbeat IPC: 0.440434 cumulative IPC: 0.400122 (Simulation time: 3 hr 8 min 31 sec) 
Heartbeat CPU 0 instructions: 60000000 cycles: 130557075 heartbeat IPC: 0.425701 cumulative IPC: 0.400604 (Simulation time: 3 hr 12 min 0 sec) 
Heartbeat CPU 0 instructions: 61000002 cycles: 133006565 heartbeat IPC: 0.408249 cumulative IPC: 0.400751 (Simulation time: 3 hr 15 min 2 sec) 
Heartbeat CPU 0 instructions: 62000000 cycles: 135372853 heartbeat IPC: 0.422602 cumulative IPC: 0.40115 (Simulation time: 3 hr 18 min 16 sec) 
Heartbeat CPU 0 instructions: 63000000 cycles: 137735555 heartbeat IPC: 0.423244 cumulative IPC: 0.401545 (Simulation time: 3 hr 21 min 37 sec) 
Heartbeat CPU 0 instructions: 64000000 cycles: 140155049 heartbeat IPC: 0.41331 cumulative IPC: 0.401757 (Simulation time: 3 hr 25 min 13 sec) 
Heartbeat CPU 0 instructions: 65000003 cycles: 142479761 heartbeat IPC: 0.430162 cumulative IPC: 0.40224 (Simulation time: 3 hr 28 min 26 sec) 
Heartbeat CPU 0 instructions: 66000002 cycles: 144822994 heartbeat IPC: 0.42676 cumulative IPC: 0.402653 (Simulation time: 3 hr 31 min 58 sec) 
Heartbeat CPU 0 instructions: 67000001 cycles: 147178469 heartbeat IPC: 0.424542 cumulative IPC: 0.403018 (Simulation time: 3 hr 35 min 54 sec) 
Heartbeat CPU 0 instructions: 68000000 cycles: 149626660 heartbeat IPC: 0.408464 cumulative IPC: 0.40311 (Simulation time: 3 hr 39 min 20 sec) 
Heartbeat CPU 0 instructions: 69000001 cycles: 151979127 heartbeat IPC: 0.425086 cumulative IPC: 0.403464 (Simulation time: 3 hr 42 min 29 sec) 
Heartbeat CPU 0 instructions: 70000000 cycles: 154394965 heartbeat IPC: 0.413935 cumulative IPC: 0.403634 (Simulation time: 3 hr 45 min 55 sec) 
Heartbeat CPU 0 instructions: 71000000 cycles: 156781439 heartbeat IPC: 0.419028 cumulative IPC: 0.403877 (Simulation time: 3 hr 49 min 13 sec) 
Heartbeat CPU 0 instructions: 72000000 cycles: 159110631 heartbeat IPC: 0.429333 cumulative IPC: 0.404264 (Simulation time: 3 hr 52 min 22 sec) 
Heartbeat CPU 0 instructions: 73000000 cycles: 161444356 heartbeat IPC: 0.428499 cumulative IPC: 0.404627 (Simulation time: 3 hr 55 min 44 sec) 
Heartbeat CPU 0 instructions: 74000002 cycles: 163829930 heartbeat IPC: 0.419187 cumulative IPC: 0.404847 (Simulation time: 3 hr 58 min 39 sec) 
Heartbeat CPU 0 instructions: 75000000 cycles: 166253379 heartbeat IPC: 0.412634 cumulative IPC: 0.404965 (Simulation time: 4 hr 1 min 45 sec) 
Heartbeat CPU 0 instructions: 76000000 cycles: 168612846 heartbeat IPC: 0.423825 cumulative IPC: 0.405238 (Simulation time: 4 hr 4 min 50 sec) 
Heartbeat CPU 0 instructions: 77000000 cycles: 171047341 heartbeat IPC: 0.410763 cumulative IPC: 0.405319 (Simulation time: 4 hr 7 min 47 sec) 
Heartbeat CPU 0 instructions: 78000002 cycles: 173412815 heartbeat IPC: 0.422749 cumulative IPC: 0.405565 (Simulation time: 4 hr 10 min 40 sec) 
Heartbeat CPU 0 instructions: 79000001 cycles: 175749297 heartbeat IPC: 0.427993 cumulative IPC: 0.405873 (Simulation time: 4 hr 13 min 41 sec) 
Heartbeat CPU 0 instructions: 80000000 cycles: 178081305 heartbeat IPC: 0.428815 cumulative IPC: 0.406184 (Simulation time: 4 hr 16 min 31 sec) 
Heartbeat CPU 0 instructions: 81000000 cycles: 180504989 heartbeat IPC: 0.412595 cumulative IPC: 0.406273 (Simulation time: 4 hr 19 min 4 sec) 
Heartbeat CPU 0 instructions: 82000000 cycles: 182868581 heartbeat IPC: 0.423085 cumulative IPC: 0.406497 (Simulation time: 4 hr 21 min 25 sec) 
Heartbeat CPU 0 instructions: 83000002 cycles: 185189323 heartbeat IPC: 0.430898 cumulative IPC: 0.406813 (Simulation time: 4 hr 23 min 41 sec) 
Heartbeat CPU 0 instructions: 84000000 cycles: 187611875 heartbeat IPC: 0.412787 cumulative IPC: 0.406892 (Simulation time: 4 hr 25 min 47 sec) 
Heartbeat CPU 0 instructions: 85000000 cycles: 189986797 heartbeat IPC: 0.421066 cumulative IPC: 0.407075 (Simulation time: 4 hr 27 min 43 sec) 
Heartbeat CPU 0 instructions: 86000000 cycles: 192336587 heartbeat IPC: 0.42557 cumulative IPC: 0.407308 (Simulation time: 4 hr 29 min 44 sec) 
Heartbeat CPU 0 instructions: 87000001 cycles: 194782906 heartbeat IPC: 0.408778 cumulative IPC: 0.407327 (Simulation time: 4 hr 31 min 37 sec) 
Heartbeat CPU 0 instructions: 88000000 cycles: 197148560 heartbeat IPC: 0.422716 cumulative IPC: 0.407517 (Simulation time: 4 hr 33 min 22 sec) 
Heartbeat CPU 0 instructions: 89000002 cycles: 199473895 heartbeat IPC: 0.430046 cumulative IPC: 0.407787 (Simulation time: 4 hr 34 min 57 sec) 
Heartbeat CPU 0 instructions: 90000002 cycles: 201837717 heartbeat IPC: 0.423044 cumulative IPC: 0.407971 (Simulation time: 4 hr 36 min 25 sec) 
Heartbeat CPU 0 instructions: 91000003 cycles: 204254280 heartbeat IPC: 0.413811 cumulative IPC: 0.408042 (Simulation time: 4 hr 37 min 56 sec) 
Heartbeat CPU 0 instructions: 92000000 cycles: 206614623 heartbeat IPC: 0.423666 cumulative IPC: 0.408226 (Simulation time: 4 hr 39 min 17 sec) 
Heartbeat CPU 0 instructions: 93000001 cycles: 208961548 heartbeat IPC: 0.42609 cumulative IPC: 0.408432 (Simulation time: 4 hr 40 min 29 sec) 
Heartbeat CPU 0 instructions: 94000002 cycles: 211414010 heartbeat IPC: 0.407754 cumulative IPC: 0.408424 (Simulation time: 4 hr 41 min 30 sec) 
Heartbeat CPU 0 instructions: 95000000 cycles: 213775027 heartbeat IPC: 0.423545 cumulative IPC: 0.408596 (Simulation time: 4 hr 42 min 32 sec) 
Heartbeat CPU 0 instructions: 96000000 cycles: 216098318 heartbeat IPC: 0.430424 cumulative IPC: 0.408837 (Simulation time: 4 hr 43 min 28 sec) 
Heartbeat CPU 0 instructions: 97000000 cycles: 218485148 heartbeat IPC: 0.418966 cumulative IPC: 0.408951 (Simulation time: 4 hr 44 min 18 sec) 
Heartbeat CPU 0 instructions: 98000001 cycles: 220885161 heartbeat IPC: 0.416665 cumulative IPC: 0.409037 (Simulation time: 4 hr 45 min 15 sec) 
Heartbeat CPU 0 instructions: 99000002 cycles: 223244120 heartbeat IPC: 0.423916 cumulative IPC: 0.409198 (Simulation time: 4 hr 46 min 0 sec) 
Heartbeat CPU 0 instructions: 100000000 cycles: 225599907 heartbeat IPC: 0.424486 cumulative IPC: 0.409362 (Simulation time: 4 hr 46 min 39 sec) 
Heartbeat CPU 0 instructions: 101000000 cycles: 228015359 heartbeat IPC: 0.414001 cumulative IPC: 0.409412 (Simulation time: 4 hr 47 min 17 sec) 
Heartbeat CPU 0 instructions: 102000000 cycles: 230248863 heartbeat IPC: 0.447727 cumulative IPC: 0.409793 (Simulation time: 4 hr 47 min 55 sec) 
Heartbeat CPU 0 instructions: 103000001 cycles: 232753463 heartbeat IPC: 0.399266 cumulative IPC: 0.409677 (Simulation time: 4 hr 48 min 29 sec) 
Heartbeat CPU 0 instructions: 104000000 cycles: 235255983 heartbeat IPC: 0.399597 cumulative IPC: 0.409567 (Simulation time: 4 hr 49 min 0 sec) 
Heartbeat CPU 0 instructions: 105000000 cycles: 237755856 heartbeat IPC: 0.40002 cumulative IPC: 0.409464 (Simulation time: 4 hr 49 min 29 sec) 
Heartbeat CPU 0 instructions: 106000000 cycles: 240252061 heartbeat IPC: 0.400608 cumulative IPC: 0.40937 (Simulation time: 4 hr 49 min 55 sec) 
Heartbeat CPU 0 instructions: 107000001 cycles: 242742653 heartbeat IPC: 0.401511 cumulative IPC: 0.409288 (Simulation time: 4 hr 50 min 15 sec) 
Heartbeat CPU 0 instructions: 108000000 cycles: 245223059 heartbeat IPC: 0.403159 cumulative IPC: 0.409224 (Simulation time: 4 hr 50 min 34 sec) 
Heartbeat CPU 0 instructions: 109000002 cycles: 247679208 heartbeat IPC: 0.407142 cumulative IPC: 0.409203 (Simulation time: 4 hr 50 min 50 sec) 
Heartbeat CPU 0 instructions: 110000000 cycles: 249999410 heartbeat IPC: 0.430996 cumulative IPC: 0.40941 (Simulation time: 4 hr 51 min 6 sec) 
Finished CPU 0 instructions: 100000000 cycles: 244253947 cummulative IPC: 0.40941 (Simulation time: 4 hr 51 min 6 sec) 

ChampSim completed all CPUs

Region of Interest Statistics

CPU 0 cummulative IPC: 0.40941 instructions: 100000000 cycles: 244253947
LLC TOTAL     ACCESS:     156519  HIT:     118776  MISS:      37743
LLC LOAD      ACCESS:      70480  HIT:      55228  MISS:      15252
LLC RFO       ACCESS:      11261  HIT:       4736  MISS:       6525
LLC PREFETCH  ACCESS:      50051  HIT:      40769  MISS:       9282
LLC WRITEBACK ACCESS:      24727  HIT:      18043  MISS:       6684
