
*** ChampSim Multicore Out-of-Order Simulator ***

Warmup Instructions: 10000000
Simulation Instructions: 100000000
Configuration: 2
Number of CPUs: 1
LLC sets: 2048
LLC ways: 16
Off-chip DRAM Channels: 1 Width: 64-bit Data Rate: 1600 MT/s

CPU 0 runs /datasets/cs240c-wi22-a00-public/data/Assignment2-gz/zeusmp_300B.trace.gz
CPU 0 L1D next line prefetcher
CPU 0 L2C IP-based stride prefetcher
config 2, num_core 1, llc_sets 2048
Heartbeat CPU 0 instructions: 1000003 cycles: 509559 heartbeat IPC: 1.96249 cumulative IPC: 1.96249 (Simulation time: 0 hr 2 min 23 sec) 
Heartbeat CPU 0 instructions: 2000003 cycles: 1062005 heartbeat IPC: 1.81013 cumulative IPC: 1.88323 (Simulation time: 0 hr 4 min 20 sec) 
Heartbeat CPU 0 instructions: 3000002 cycles: 1606178 heartbeat IPC: 1.83765 cumulative IPC: 1.86779 (Simulation time: 0 hr 6 min 13 sec) 
Heartbeat CPU 0 instructions: 4000000 cycles: 2092972 heartbeat IPC: 2.05425 cumulative IPC: 1.91116 (Simulation time: 0 hr 7 min 54 sec) 
Heartbeat CPU 0 instructions: 5000001 cycles: 2575662 heartbeat IPC: 2.07173 cumulative IPC: 1.94125 (Simulation time: 0 hr 9 min 38 sec) 
Heartbeat CPU 0 instructions: 6000000 cycles: 3062356 heartbeat IPC: 2.05468 cumulative IPC: 1.95928 (Simulation time: 0 hr 11 min 14 sec) 
Heartbeat CPU 0 instructions: 7000001 cycles: 3589771 heartbeat IPC: 1.89604 cumulative IPC: 1.94999 (Simulation time: 0 hr 12 min 56 sec) 
Heartbeat CPU 0 instructions: 8000000 cycles: 4142387 heartbeat IPC: 1.80957 cumulative IPC: 1.93125 (Simulation time: 0 hr 14 min 32 sec) 
Heartbeat CPU 0 instructions: 9000000 cycles: 4669493 heartbeat IPC: 1.89715 cumulative IPC: 1.9274 (Simulation time: 0 hr 16 min 6 sec) 
Heartbeat CPU 0 instructions: 10000002 cycles: 5155822 heartbeat IPC: 2.05623 cumulative IPC: 1.93956 (Simulation time: 0 hr 17 min 41 sec) 

Warmup complete CPU 0 instructions: 10000002 cycles: 5155822 (Simulation time: 0 hr 17 min 41 sec) 

Heartbeat CPU 0 instructions: 11000003 cycles: 5871146 heartbeat IPC: 1.39797 cumulative IPC: 1.39797 (Simulation time: 0 hr 19 min 53 sec) 
Heartbeat CPU 0 instructions: 12000000 cycles: 6581521 heartbeat IPC: 1.4077 cumulative IPC: 1.40282 (Simulation time: 0 hr 22 min 4 sec) 
Heartbeat CPU 0 instructions: 13000000 cycles: 7393512 heartbeat IPC: 1.23154 cumulative IPC: 1.34067 (Simulation time: 0 hr 24 min 6 sec) 
Heartbeat CPU 0 instructions: 14000000 cycles: 8205736 heartbeat IPC: 1.23119 cumulative IPC: 1.31151 (Simulation time: 0 hr 25 min 59 sec) 
Heartbeat CPU 0 instructions: 15000002 cycles: 8944891 heartbeat IPC: 1.3529 cumulative IPC: 1.31959 (Simulation time: 0 hr 28 min 0 sec) 
Heartbeat CPU 0 instructions: 16000000 cycles: 9649916 heartbeat IPC: 1.41839 cumulative IPC: 1.33509 (Simulation time: 0 hr 29 min 45 sec) 
Heartbeat CPU 0 instructions: 17000003 cycles: 10360258 heartbeat IPC: 1.40778 cumulative IPC: 1.34501 (Simulation time: 0 hr 31 min 38 sec) 
Heartbeat CPU 0 instructions: 18000000 cycles: 11085946 heartbeat IPC: 1.378 cumulative IPC: 1.34904 (Simulation time: 0 hr 33 min 20 sec) 
Heartbeat CPU 0 instructions: 19000003 cycles: 11903705 heartbeat IPC: 1.22286 cumulative IPC: 1.33375 (Simulation time: 0 hr 35 min 9 sec) 
Heartbeat CPU 0 instructions: 20000000 cycles: 12714711 heartbeat IPC: 1.23303 cumulative IPC: 1.32295 (Simulation time: 0 hr 36 min 54 sec) 
Heartbeat CPU 0 instructions: 21000001 cycles: 13427140 heartbeat IPC: 1.40365 cumulative IPC: 1.3299 (Simulation time: 0 hr 38 min 39 sec) 
Heartbeat CPU 0 instructions: 22000000 cycles: 14138299 heartbeat IPC: 1.40615 cumulative IPC: 1.33593 (Simulation time: 0 hr 40 min 10 sec) 
Heartbeat CPU 0 instructions: 23000001 cycles: 14846316 heartbeat IPC: 1.4124 cumulative IPC: 1.34152 (Simulation time: 0 hr 41 min 41 sec) 
Heartbeat CPU 0 instructions: 24000000 cycles: 15601516 heartbeat IPC: 1.32415 cumulative IPC: 1.34027 (Simulation time: 0 hr 43 min 23 sec) 
Heartbeat CPU 0 instructions: 25000000 cycles: 16413024 heartbeat IPC: 1.23227 cumulative IPC: 1.33248 (Simulation time: 0 hr 45 min 12 sec) 
Heartbeat CPU 0 instructions: 26000000 cycles: 17225415 heartbeat IPC: 1.23093 cumulative IPC: 1.32565 (Simulation time: 0 hr 47 min 2 sec) 
Heartbeat CPU 0 instructions: 27000002 cycles: 17930782 heartbeat IPC: 1.4177 cumulative IPC: 1.33073 (Simulation time: 0 hr 48 min 48 sec) 
Heartbeat CPU 0 instructions: 28000000 cycles: 18638180 heartbeat IPC: 1.41363 cumulative IPC: 1.33508 (Simulation time: 0 hr 50 min 33 sec) 
Heartbeat CPU 0 instructions: 29000003 cycles: 19347235 heartbeat IPC: 1.41033 cumulative IPC: 1.33884 (Simulation time: 0 hr 52 min 15 sec) 
Heartbeat CPU 0 instructions: 30000002 cycles: 20124618 heartbeat IPC: 1.28637 cumulative IPC: 1.33611 (Simulation time: 0 hr 53 min 54 sec) 
Heartbeat CPU 0 instructions: 31000001 cycles: 20940721 heartbeat IPC: 1.22533 cumulative IPC: 1.33039 (Simulation time: 0 hr 55 min 27 sec) 
Heartbeat CPU 0 instructions: 32000000 cycles: 21715438 heartbeat IPC: 1.29079 cumulative IPC: 1.32853 (Simulation time: 0 hr 56 min 54 sec) 
Heartbeat CPU 0 instructions: 33000000 cycles: 22418298 heartbeat IPC: 1.42276 cumulative IPC: 1.33237 (Simulation time: 0 hr 58 min 37 sec) 
Heartbeat CPU 0 instructions: 34000000 cycles: 23131269 heartbeat IPC: 1.40258 cumulative IPC: 1.33515 (Simulation time: 1 hr 0 min 16 sec) 
Heartbeat CPU 0 instructions: 35000000 cycles: 23837399 heartbeat IPC: 1.41617 cumulative IPC: 1.33822 (Simulation time: 1 hr 1 min 54 sec) 
Heartbeat CPU 0 instructions: 36000000 cycles: 24638323 heartbeat IPC: 1.24856 cumulative IPC: 1.33453 (Simulation time: 1 hr 3 min 35 sec) 
Heartbeat CPU 0 instructions: 37000003 cycles: 25453152 heartbeat IPC: 1.22725 cumulative IPC: 1.33022 (Simulation time: 1 hr 5 min 26 sec) 
Heartbeat CPU 0 instructions: 38000001 cycles: 26204872 heartbeat IPC: 1.33028 cumulative IPC: 1.33023 (Simulation time: 1 hr 7 min 25 sec) 
Heartbeat CPU 0 instructions: 39000002 cycles: 26910880 heartbeat IPC: 1.41642 cumulative IPC: 1.33302 (Simulation time: 1 hr 9 min 16 sec) 
Heartbeat CPU 0 instructions: 40000000 cycles: 27621899 heartbeat IPC: 1.40643 cumulative IPC: 1.33535 (Simulation time: 1 hr 11 min 7 sec) 
Heartbeat CPU 0 instructions: 41000001 cycles: 28327008 heartbeat IPC: 1.41822 cumulative IPC: 1.33787 (Simulation time: 1 hr 12 min 48 sec) 
Heartbeat CPU 0 instructions: 42000001 cycles: 29154439 heartbeat IPC: 1.20856 cumulative IPC: 1.33341 (Simulation time: 1 hr 14 min 50 sec) 
Heartbeat CPU 0 instructions: 43000000 cycles: 29964299 heartbeat IPC: 1.23478 cumulative IPC: 1.33019 (Simulation time: 1 hr 16 min 33 sec) 
Heartbeat CPU 0 instructions: 44000000 cycles: 30688124 heartbeat IPC: 1.38155 cumulative IPC: 1.33165 (Simulation time: 1 hr 18 min 0 sec) 
Heartbeat CPU 0 instructions: 45000002 cycles: 31395144 heartbeat IPC: 1.41439 cumulative IPC: 1.33388 (Simulation time: 1 hr 19 min 27 sec) 
Heartbeat CPU 0 instructions: 46000002 cycles: 32103689 heartbeat IPC: 1.41134 cumulative IPC: 1.33591 (Simulation time: 1 hr 20 min 55 sec) 
Heartbeat CPU 0 instructions: 47000001 cycles: 32846915 heartbeat IPC: 1.34548 cumulative IPC: 1.33617 (Simulation time: 1 hr 22 min 34 sec) 
Heartbeat CPU 0 instructions: 48000000 cycles: 33657838 heartbeat IPC: 1.23316 cumulative IPC: 1.33324 (Simulation time: 1 hr 24 min 29 sec) 
Heartbeat CPU 0 instructions: 49000003 cycles: 34464351 heartbeat IPC: 1.23991 cumulative IPC: 1.33067 (Simulation time: 1 hr 26 min 13 sec) 
Heartbeat CPU 0 instructions: 50000001 cycles: 35168160 heartbeat IPC: 1.42084 cumulative IPC: 1.33279 (Simulation time: 1 hr 27 min 57 sec) 
Heartbeat CPU 0 instructions: 51000002 cycles: 35874748 heartbeat IPC: 1.41525 cumulative IPC: 1.33468 (Simulation time: 1 hr 29 min 33 sec) 
Heartbeat CPU 0 instructions: 52000000 cycles: 36583664 heartbeat IPC: 1.4106 cumulative IPC: 1.33639 (Simulation time: 1 hr 31 min 8 sec) 
Heartbeat CPU 0 instructions: 53000000 cycles: 37349790 heartbeat IPC: 1.30527 cumulative IPC: 1.33565 (Simulation time: 1 hr 32 min 43 sec) 
Heartbeat CPU 0 instructions: 54000002 cycles: 38159646 heartbeat IPC: 1.23479 cumulative IPC: 1.33318 (Simulation time: 1 hr 34 min 13 sec) 
Heartbeat CPU 0 instructions: 55000001 cycles: 38940944 heartbeat IPC: 1.27992 cumulative IPC: 1.33195 (Simulation time: 1 hr 35 min 53 sec) 
Heartbeat CPU 0 instructions: 56000000 cycles: 39647135 heartbeat IPC: 1.41605 cumulative IPC: 1.33367 (Simulation time: 1 hr 37 min 39 sec) 
Heartbeat CPU 0 instructions: 57000000 cycles: 40354273 heartbeat IPC: 1.41415 cumulative IPC: 1.33529 (Simulation time: 1 hr 39 min 25 sec) 
Heartbeat CPU 0 instructions: 58000000 cycles: 41062980 heartbeat IPC: 1.41102 cumulative IPC: 1.33678 (Simulation time: 1 hr 41 min 9 sec) 
Heartbeat CPU 0 instructions: 59000003 cycles: 41850964 heartbeat IPC: 1.26907 cumulative IPC: 1.33533 (Simulation time: 1 hr 42 min 51 sec) 
Heartbeat CPU 0 instructions: 60000000 cycles: 42662219 heartbeat IPC: 1.23265 cumulative IPC: 1.33311 (Simulation time: 1 hr 45 min 2 sec) 
Heartbeat CPU 0 instructions: 61000000 cycles: 43420143 heartbeat IPC: 1.31939 cumulative IPC: 1.33283 (Simulation time: 1 hr 46 min 47 sec) 
Heartbeat CPU 0 instructions: 62000002 cycles: 44124680 heartbeat IPC: 1.41937 cumulative IPC: 1.3344 (Simulation time: 1 hr 48 min 50 sec) 
Heartbeat CPU 0 instructions: 63000003 cycles: 44832597 heartbeat IPC: 1.4126 cumulative IPC: 1.33579 (Simulation time: 1 hr 50 min 55 sec) 
Heartbeat CPU 0 instructions: 64000000 cycles: 45538921 heartbeat IPC: 1.41578 cumulative IPC: 1.33719 (Simulation time: 1 hr 52 min 56 sec) 
Heartbeat CPU 0 instructions: 65000003 cycles: 46355922 heartbeat IPC: 1.22399 cumulative IPC: 1.33495 (Simulation time: 1 hr 55 min 5 sec) 
Heartbeat CPU 0 instructions: 66000003 cycles: 47167600 heartbeat IPC: 1.23202 cumulative IPC: 1.33296 (Simulation time: 1 hr 57 min 6 sec) 
Heartbeat CPU 0 instructions: 67000002 cycles: 47901529 heartbeat IPC: 1.36253 cumulative IPC: 1.33347 (Simulation time: 1 hr 59 min 1 sec) 
Heartbeat CPU 0 instructions: 68000000 cycles: 48606460 heartbeat IPC: 1.41858 cumulative IPC: 1.33485 (Simulation time: 2 hr 0 min 34 sec) 
Heartbeat CPU 0 instructions: 69000000 cycles: 49315052 heartbeat IPC: 1.41125 cumulative IPC: 1.33607 (Simulation time: 2 hr 2 min 8 sec) 
Heartbeat CPU 0 instructions: 70000001 cycles: 50049149 heartbeat IPC: 1.36222 cumulative IPC: 1.3365 (Simulation time: 2 hr 4 min 10 sec) 
Heartbeat CPU 0 instructions: 71000001 cycles: 50856094 heartbeat IPC: 1.23924 cumulative IPC: 1.33478 (Simulation time: 2 hr 6 min 13 sec) 
Heartbeat CPU 0 instructions: 72000000 cycles: 51666471 heartbeat IPC: 1.23399 cumulative IPC: 1.33303 (Simulation time: 2 hr 8 min 28 sec) 
Heartbeat CPU 0 instructions: 73000003 cycles: 52377805 heartbeat IPC: 1.40581 cumulative IPC: 1.33412 (Simulation time: 2 hr 10 min 19 sec) 
Heartbeat CPU 0 instructions: 74000001 cycles: 53085693 heartbeat IPC: 1.41265 cumulative IPC: 1.33528 (Simulation time: 2 hr 11 min 55 sec) 
Heartbeat CPU 0 instructions: 75000003 cycles: 53796702 heartbeat IPC: 1.40645 cumulative IPC: 1.33632 (Simulation time: 2 hr 13 min 34 sec) 
Heartbeat CPU 0 instructions: 76000000 cycles: 54555302 heartbeat IPC: 1.31821 cumulative IPC: 1.33605 (Simulation time: 2 hr 15 min 22 sec) 
Heartbeat CPU 0 instructions: 77000001 cycles: 55366486 heartbeat IPC: 1.23277 cumulative IPC: 1.33438 (Simulation time: 2 hr 17 min 20 sec) 
Heartbeat CPU 0 instructions: 78000003 cycles: 56155672 heartbeat IPC: 1.26713 cumulative IPC: 1.33334 (Simulation time: 2 hr 19 min 16 sec) 
Heartbeat CPU 0 instructions: 79000001 cycles: 56860959 heartbeat IPC: 1.41786 cumulative IPC: 1.33449 (Simulation time: 2 hr 21 min 2 sec) 
Heartbeat CPU 0 instructions: 80000000 cycles: 57569780 heartbeat IPC: 1.41079 cumulative IPC: 1.33552 (Simulation time: 2 hr 22 min 56 sec) 
Heartbeat CPU 0 instructions: 81000000 cycles: 58274747 heartbeat IPC: 1.41851 cumulative IPC: 1.33662 (Simulation time: 2 hr 24 min 53 sec) 
Heartbeat CPU 0 instructions: 82000002 cycles: 59055492 heartbeat IPC: 1.28083 cumulative IPC: 1.33582 (Simulation time: 2 hr 26 min 46 sec) 
Heartbeat CPU 0 instructions: 83000001 cycles: 59865218 heartbeat IPC: 1.23498 cumulative IPC: 1.33432 (Simulation time: 2 hr 28 min 47 sec) 
Heartbeat CPU 0 instructions: 84000000 cycles: 60629324 heartbeat IPC: 1.30872 cumulative IPC: 1.33397 (Simulation time: 2 hr 30 min 37 sec) 
Heartbeat CPU 0 instructions: 85000001 cycles: 61334862 heartbeat IPC: 1.41736 cumulative IPC: 1.33502 (Simulation time: 2 hr 32 min 19 sec) 
Heartbeat CPU 0 instructions: 86000002 cycles: 62044148 heartbeat IPC: 1.40987 cumulative IPC: 1.33595 (Simulation time: 2 hr 34 min 21 sec) 
Heartbeat CPU 0 instructions: 87000000 cycles: 62750585 heartbeat IPC: 1.41555 cumulative IPC: 1.33693 (Simulation time: 2 hr 36 min 24 sec) 
Heartbeat CPU 0 instructions: 88000000 cycles: 63554881 heartbeat IPC: 1.24332 cumulative IPC: 1.33564 (Simulation time: 2 hr 38 min 9 sec) 
Heartbeat CPU 0 instructions: 89000000 cycles: 64366563 heartbeat IPC: 1.23201 cumulative IPC: 1.33422 (Simulation time: 2 hr 40 min 4 sec) 
Heartbeat CPU 0 instructions: 90000002 cycles: 65109050 heartbeat IPC: 1.34683 cumulative IPC: 1.33437 (Simulation time: 2 hr 41 min 50 sec) 
Heartbeat CPU 0 instructions: 91000002 cycles: 65814510 heartbeat IPC: 1.41751 cumulative IPC: 1.33534 (Simulation time: 2 hr 43 min 21 sec) 
Heartbeat CPU 0 instructions: 92000000 cycles: 66524543 heartbeat IPC: 1.40838 cumulative IPC: 1.33619 (Simulation time: 2 hr 45 min 15 sec) 
Heartbeat CPU 0 instructions: 93000001 cycles: 67229169 heartbeat IPC: 1.41919 cumulative IPC: 1.33713 (Simulation time: 2 hr 47 min 3 sec) 
Heartbeat CPU 0 instructions: 94000000 cycles: 68057068 heartbeat IPC: 1.20788 cumulative IPC: 1.33543 (Simulation time: 2 hr 49 min 11 sec) 
Heartbeat CPU 0 instructions: 95000003 cycles: 68868186 heartbeat IPC: 1.23287 cumulative IPC: 1.33412 (Simulation time: 2 hr 50 min 46 sec) 
Heartbeat CPU 0 instructions: 96000000 cycles: 69587039 heartbeat IPC: 1.3911 cumulative IPC: 1.33476 (Simulation time: 2 hr 52 min 32 sec) 
Heartbeat CPU 0 instructions: 97000001 cycles: 70296437 heartbeat IPC: 1.40965 cumulative IPC: 1.33557 (Simulation time: 2 hr 54 min 22 sec) 
Heartbeat CPU 0 instructions: 98000000 cycles: 71005965 heartbeat IPC: 1.40939 cumulative IPC: 1.33637 (Simulation time: 2 hr 56 min 1 sec) 
Heartbeat CPU 0 instructions: 99000001 cycles: 71751368 heartbeat IPC: 1.34156 cumulative IPC: 1.33643 (Simulation time: 2 hr 57 min 44 sec) 
Heartbeat CPU 0 instructions: 100000000 cycles: 72562909 heartbeat IPC: 1.23222 cumulative IPC: 1.33517 (Simulation time: 2 hr 59 min 50 sec) 
Heartbeat CPU 0 instructions: 101000001 cycles: 73366867 heartbeat IPC: 1.24385 cumulative IPC: 1.33409 (Simulation time: 3 hr 1 min 40 sec) 
Heartbeat CPU 0 instructions: 102000003 cycles: 74070895 heartbeat IPC: 1.4204 cumulative IPC: 1.33498 (Simulation time: 3 hr 3 min 33 sec) 
Heartbeat CPU 0 instructions: 103000003 cycles: 74778993 heartbeat IPC: 1.41223 cumulative IPC: 1.33576 (Simulation time: 3 hr 5 min 18 sec) 
Heartbeat CPU 0 instructions: 104000000 cycles: 75485498 heartbeat IPC: 1.41541 cumulative IPC: 1.33656 (Simulation time: 3 hr 7 min 1 sec) 
Heartbeat CPU 0 instructions: 105000001 cycles: 76260374 heartbeat IPC: 1.29053 cumulative IPC: 1.33606 (Simulation time: 3 hr 8 min 40 sec) 
Heartbeat CPU 0 instructions: 106000002 cycles: 77066938 heartbeat IPC: 1.23983 cumulative IPC: 1.33498 (Simulation time: 3 hr 10 min 35 sec) 
Heartbeat CPU 0 instructions: 107000003 cycles: 77844102 heartbeat IPC: 1.28673 cumulative IPC: 1.33447 (Simulation time: 3 hr 12 min 22 sec) 
Heartbeat CPU 0 instructions: 108000000 cycles: 78550424 heartbeat IPC: 1.41578 cumulative IPC: 1.33525 (Simulation time: 3 hr 14 min 5 sec) 
Heartbeat CPU 0 instructions: 109000001 cycles: 79257794 heartbeat IPC: 1.41369 cumulative IPC: 1.336 (Simulation time: 3 hr 15 min 48 sec) 
Heartbeat CPU 0 instructions: 110000000 cycles: 79963808 heartbeat IPC: 1.4164 cumulative IPC: 1.33676 (Simulation time: 3 hr 17 min 29 sec) 
Finished CPU 0 instructions: 100000002 cycles: 74807987 cummulative IPC: 1.33676 (Simulation time: 3 hr 17 min 29 sec) 

ChampSim completed all CPUs

Region of Interest Statistics

CPU 0 cummulative IPC: 1.33676 instructions: 100000002 cycles: 74807987
LLC TOTAL     ACCESS:     631632  HIT:     231879  MISS:     399753
LLC LOAD      ACCESS:      34927  HIT:       5249  MISS:      29678
LLC RFO       ACCESS:     152072  HIT:      73056  MISS:      79016
LLC PREFETCH  ACCESS:     288825  HIT:      73961  MISS:     214864
LLC WRITEBACK ACCESS:     155808  HIT:      79613  MISS:      76195
