
*** ChampSim Multicore Out-of-Order Simulator ***

Warmup Instructions: 10000000
Simulation Instructions: 100000000
Configuration: 2
Number of CPUs: 1
LLC sets: 2048
LLC ways: 16
Off-chip DRAM Channels: 1 Width: 64-bit Data Rate: 1600 MT/s

CPU 0 runs /datasets/cs240c-wi22-a00-public/data/Assignment2-gz/soplex_66B.trace.gz
CPU 0 L1D next line prefetcher
CPU 0 L2C IP-based stride prefetcher
config 2, num_core 1, llc_sets 2048
Heartbeat CPU 0 instructions: 1000003 cycles: 415148 heartbeat IPC: 2.40879 cumulative IPC: 2.40879 (Simulation time: 0 hr 2 min 13 sec) 
Heartbeat CPU 0 instructions: 2000003 cycles: 837713 heartbeat IPC: 2.3665 cumulative IPC: 2.38746 (Simulation time: 0 hr 4 min 13 sec) 
Heartbeat CPU 0 instructions: 3000003 cycles: 1243543 heartbeat IPC: 2.46409 cumulative IPC: 2.41246 (Simulation time: 0 hr 5 min 55 sec) 
Heartbeat CPU 0 instructions: 4000000 cycles: 1627667 heartbeat IPC: 2.60332 cumulative IPC: 2.45751 (Simulation time: 0 hr 7 min 28 sec) 
Heartbeat CPU 0 instructions: 5000000 cycles: 2038143 heartbeat IPC: 2.4362 cumulative IPC: 2.45321 (Simulation time: 0 hr 9 min 19 sec) 
Heartbeat CPU 0 instructions: 6000000 cycles: 2509918 heartbeat IPC: 2.11965 cumulative IPC: 2.39052 (Simulation time: 0 hr 11 min 7 sec) 
Heartbeat CPU 0 instructions: 7000002 cycles: 2882647 heartbeat IPC: 2.68292 cumulative IPC: 2.42832 (Simulation time: 0 hr 12 min 59 sec) 
Heartbeat CPU 0 instructions: 8000000 cycles: 3308408 heartbeat IPC: 2.34873 cumulative IPC: 2.41808 (Simulation time: 0 hr 15 min 23 sec) 
Heartbeat CPU 0 instructions: 9000001 cycles: 3747038 heartbeat IPC: 2.27983 cumulative IPC: 2.4019 (Simulation time: 0 hr 17 min 15 sec) 
Heartbeat CPU 0 instructions: 10000002 cycles: 4159153 heartbeat IPC: 2.42651 cumulative IPC: 2.40434 (Simulation time: 0 hr 19 min 5 sec) 

Warmup complete CPU 0 instructions: 10000002 cycles: 4159153 (Simulation time: 0 hr 19 min 5 sec) 

Heartbeat CPU 0 instructions: 11000001 cycles: 7459353 heartbeat IPC: 0.303012 cumulative IPC: 0.303012 (Simulation time: 0 hr 21 min 27 sec) 
Heartbeat CPU 0 instructions: 12000000 cycles: 8858786 heartbeat IPC: 0.714574 cumulative IPC: 0.425565 (Simulation time: 0 hr 22 min 56 sec) 
Heartbeat CPU 0 instructions: 13000001 cycles: 11548285 heartbeat IPC: 0.371817 cumulative IPC: 0.406002 (Simulation time: 0 hr 24 min 57 sec) 
Heartbeat CPU 0 instructions: 14000002 cycles: 13981168 heartbeat IPC: 0.411035 cumulative IPC: 0.407248 (Simulation time: 0 hr 27 min 22 sec) 
Heartbeat CPU 0 instructions: 15000002 cycles: 16584438 heartbeat IPC: 0.384132 cumulative IPC: 0.402405 (Simulation time: 0 hr 29 min 31 sec) 
Heartbeat CPU 0 instructions: 16000000 cycles: 19427195 heartbeat IPC: 0.35177 cumulative IPC: 0.392978 (Simulation time: 0 hr 31 min 45 sec) 
Heartbeat CPU 0 instructions: 17000001 cycles: 21554992 heartbeat IPC: 0.46997 cumulative IPC: 0.402395 (Simulation time: 0 hr 34 min 4 sec) 
Heartbeat CPU 0 instructions: 18000000 cycles: 23511776 heartbeat IPC: 0.511042 cumulative IPC: 0.413381 (Simulation time: 0 hr 36 min 20 sec) 
Heartbeat CPU 0 instructions: 19000002 cycles: 27084784 heartbeat IPC: 0.279877 cumulative IPC: 0.392574 (Simulation time: 0 hr 38 min 56 sec) 
Heartbeat CPU 0 instructions: 20000000 cycles: 28465961 heartbeat IPC: 0.724019 cumulative IPC: 0.411407 (Simulation time: 0 hr 40 min 12 sec) 
Heartbeat CPU 0 instructions: 21000000 cycles: 30694947 heartbeat IPC: 0.448635 cumulative IPC: 0.414534 (Simulation time: 0 hr 41 min 54 sec) 
Heartbeat CPU 0 instructions: 22000000 cycles: 33315159 heartbeat IPC: 0.381649 cumulative IPC: 0.411579 (Simulation time: 0 hr 43 min 47 sec) 
Heartbeat CPU 0 instructions: 23000000 cycles: 35828125 heartbeat IPC: 0.397936 cumulative IPC: 0.410496 (Simulation time: 0 hr 45 min 42 sec) 
Heartbeat CPU 0 instructions: 24000000 cycles: 38455880 heartbeat IPC: 0.380553 cumulative IPC: 0.408202 (Simulation time: 0 hr 47 min 35 sec) 
Heartbeat CPU 0 instructions: 25000003 cycles: 40686372 heartbeat IPC: 0.448333 cumulative IPC: 0.410653 (Simulation time: 0 hr 50 min 13 sec) 
Heartbeat CPU 0 instructions: 26000001 cycles: 42849532 heartbeat IPC: 0.462286 cumulative IPC: 0.413539 (Simulation time: 0 hr 52 min 5 sec) 
Heartbeat CPU 0 instructions: 27000002 cycles: 46442245 heartbeat IPC: 0.278341 cumulative IPC: 0.402052 (Simulation time: 0 hr 54 min 36 sec) 
Heartbeat CPU 0 instructions: 28000000 cycles: 47822981 heartbeat IPC: 0.72425 cumulative IPC: 0.412241 (Simulation time: 0 hr 56 min 31 sec) 
Heartbeat CPU 0 instructions: 29000002 cycles: 49663175 heartbeat IPC: 0.543422 cumulative IPC: 0.417545 (Simulation time: 0 hr 58 min 16 sec) 
Heartbeat CPU 0 instructions: 30000000 cycles: 52484257 heartbeat IPC: 0.354473 cumulative IPC: 0.413864 (Simulation time: 1 hr 0 min 26 sec) 
Heartbeat CPU 0 instructions: 31000001 cycles: 55025119 heartbeat IPC: 0.393568 cumulative IPC: 0.41285 (Simulation time: 1 hr 2 min 4 sec) 
Heartbeat CPU 0 instructions: 32000000 cycles: 57607967 heartbeat IPC: 0.387169 cumulative IPC: 0.411609 (Simulation time: 1 hr 3 min 42 sec) 
Heartbeat CPU 0 instructions: 33000001 cycles: 60719153 heartbeat IPC: 0.321421 cumulative IPC: 0.406648 (Simulation time: 1 hr 6 min 10 sec) 
Heartbeat CPU 0 instructions: 34000003 cycles: 62739228 heartbeat IPC: 0.495032 cumulative IPC: 0.409696 (Simulation time: 1 hr 8 min 25 sec) 
Heartbeat CPU 0 instructions: 35000003 cycles: 65914622 heartbeat IPC: 0.314922 cumulative IPC: 0.404822 (Simulation time: 1 hr 10 min 31 sec) 
Heartbeat CPU 0 instructions: 36000000 cycles: 67293492 heartbeat IPC: 0.725229 cumulative IPC: 0.41182 (Simulation time: 1 hr 12 min 5 sec) 
Heartbeat CPU 0 instructions: 37000000 cycles: 69912072 heartbeat IPC: 0.381886 cumulative IPC: 0.410628 (Simulation time: 1 hr 14 min 2 sec) 
Heartbeat CPU 0 instructions: 38000001 cycles: 72246634 heartbeat IPC: 0.428346 cumulative IPC: 0.411236 (Simulation time: 1 hr 16 min 1 sec) 
Heartbeat CPU 0 instructions: 39000003 cycles: 74829079 heartbeat IPC: 0.387231 cumulative IPC: 0.410358 (Simulation time: 1 hr 17 min 30 sec) 
Heartbeat CPU 0 instructions: 40000000 cycles: 77649644 heartbeat IPC: 0.354538 cumulative IPC: 0.408216 (Simulation time: 1 hr 19 min 37 sec) 
Heartbeat CPU 0 instructions: 41000001 cycles: 79666927 heartbeat IPC: 0.495717 cumulative IPC: 0.410554 (Simulation time: 1 hr 21 min 32 sec) 
Heartbeat CPU 0 instructions: 42000000 cycles: 81588014 heartbeat IPC: 0.520538 cumulative IPC: 0.413283 (Simulation time: 1 hr 23 min 32 sec) 
Heartbeat CPU 0 instructions: 43000000 cycles: 85126232 heartbeat IPC: 0.282628 cumulative IPC: 0.407573 (Simulation time: 1 hr 25 min 46 sec) 
Heartbeat CPU 0 instructions: 44000000 cycles: 86499489 heartbeat IPC: 0.728196 cumulative IPC: 0.41292 (Simulation time: 1 hr 27 min 9 sec) 
Heartbeat CPU 0 instructions: 45000003 cycles: 88714481 heartbeat IPC: 0.45147 cumulative IPC: 0.41393 (Simulation time: 1 hr 29 min 0 sec) 
Heartbeat CPU 0 instructions: 46000003 cycles: 91326130 heartbeat IPC: 0.3829 cumulative IPC: 0.413 (Simulation time: 1 hr 30 min 50 sec) 
Heartbeat CPU 0 instructions: 47000001 cycles: 93847353 heartbeat IPC: 0.396632 cumulative IPC: 0.41254 (Simulation time: 1 hr 32 min 44 sec) 
Heartbeat CPU 0 instructions: 48000000 cycles: 96478397 heartbeat IPC: 0.380077 cumulative IPC: 0.411615 (Simulation time: 1 hr 34 min 16 sec) 
Heartbeat CPU 0 instructions: 49000000 cycles: 99816582 heartbeat IPC: 0.299564 cumulative IPC: 0.407705 (Simulation time: 1 hr 36 min 49 sec) 
Heartbeat CPU 0 instructions: 50000003 cycles: 105743651 heartbeat IPC: 0.168718 cumulative IPC: 0.393761 (Simulation time: 1 hr 39 min 27 sec) 
Heartbeat CPU 0 instructions: 51000002 cycles: 108168405 heartbeat IPC: 0.412413 cumulative IPC: 0.394196 (Simulation time: 1 hr 41 min 58 sec) 
Heartbeat CPU 0 instructions: 52000000 cycles: 112505600 heartbeat IPC: 0.230563 cumulative IPC: 0.387645 (Simulation time: 1 hr 44 min 37 sec) 
Heartbeat CPU 0 instructions: 53000000 cycles: 115486761 heartbeat IPC: 0.33544 cumulative IPC: 0.386247 (Simulation time: 1 hr 46 min 52 sec) 
Heartbeat CPU 0 instructions: 54000000 cycles: 118191528 heartbeat IPC: 0.369718 cumulative IPC: 0.385855 (Simulation time: 1 hr 49 min 14 sec) 
Heartbeat CPU 0 instructions: 55000002 cycles: 122799980 heartbeat IPC: 0.216993 cumulative IPC: 0.379296 (Simulation time: 1 hr 51 min 26 sec) 
Heartbeat CPU 0 instructions: 56000000 cycles: 127794578 heartbeat IPC: 0.200216 cumulative IPC: 0.372062 (Simulation time: 1 hr 54 min 7 sec) 
Heartbeat CPU 0 instructions: 57000003 cycles: 130850567 heartbeat IPC: 0.327227 cumulative IPC: 0.37098 (Simulation time: 1 hr 56 min 22 sec) 
Heartbeat CPU 0 instructions: 58000000 cycles: 133424216 heartbeat IPC: 0.388552 cumulative IPC: 0.37133 (Simulation time: 1 hr 59 min 3 sec) 
Heartbeat CPU 0 instructions: 59000002 cycles: 135050016 heartbeat IPC: 0.615083 cumulative IPC: 0.374358 (Simulation time: 2 hr 1 min 7 sec) 
Heartbeat CPU 0 instructions: 60000000 cycles: 136375349 heartbeat IPC: 0.754526 cumulative IPC: 0.378168 (Simulation time: 2 hr 3 min 4 sec) 
Heartbeat CPU 0 instructions: 61000002 cycles: 139677243 heartbeat IPC: 0.302857 cumulative IPC: 0.376334 (Simulation time: 2 hr 5 min 26 sec) 
Heartbeat CPU 0 instructions: 62000002 cycles: 142447334 heartbeat IPC: 0.360999 cumulative IPC: 0.376026 (Simulation time: 2 hr 7 min 38 sec) 
Heartbeat CPU 0 instructions: 63000002 cycles: 144629884 heartbeat IPC: 0.45818 cumulative IPC: 0.377303 (Simulation time: 2 hr 9 min 46 sec) 
Heartbeat CPU 0 instructions: 64000000 cycles: 147098798 heartbeat IPC: 0.405036 cumulative IPC: 0.377782 (Simulation time: 2 hr 11 min 32 sec) 
Heartbeat CPU 0 instructions: 65000000 cycles: 151404246 heartbeat IPC: 0.232264 cumulative IPC: 0.373527 (Simulation time: 2 hr 14 min 9 sec) 
Heartbeat CPU 0 instructions: 66000001 cycles: 152860998 heartbeat IPC: 0.686459 cumulative IPC: 0.376592 (Simulation time: 2 hr 15 min 41 sec) 
Heartbeat CPU 0 instructions: 67000000 cycles: 154295764 heartbeat IPC: 0.696977 cumulative IPC: 0.379654 (Simulation time: 2 hr 17 min 17 sec) 
Heartbeat CPU 0 instructions: 68000000 cycles: 157809871 heartbeat IPC: 0.284567 cumulative IPC: 0.37748 (Simulation time: 2 hr 19 min 32 sec) 
Heartbeat CPU 0 instructions: 69000000 cycles: 160248766 heartbeat IPC: 0.410022 cumulative IPC: 0.377988 (Simulation time: 2 hr 21 min 25 sec) 
Heartbeat CPU 0 instructions: 70000003 cycles: 162688573 heartbeat IPC: 0.40987 cumulative IPC: 0.378479 (Simulation time: 2 hr 23 min 29 sec) 
Heartbeat CPU 0 instructions: 71000000 cycles: 165210041 heartbeat IPC: 0.396593 cumulative IPC: 0.378762 (Simulation time: 2 hr 26 min 6 sec) 
Heartbeat CPU 0 instructions: 72000000 cycles: 168092680 heartbeat IPC: 0.346904 cumulative IPC: 0.378202 (Simulation time: 2 hr 28 min 17 sec) 
Heartbeat CPU 0 instructions: 73000002 cycles: 171070487 heartbeat IPC: 0.335818 cumulative IPC: 0.377446 (Simulation time: 2 hr 30 min 37 sec) 
Heartbeat CPU 0 instructions: 74000000 cycles: 173101617 heartbeat IPC: 0.492336 cumulative IPC: 0.378827 (Simulation time: 2 hr 32 min 16 sec) 
Heartbeat CPU 0 instructions: 75000002 cycles: 174472506 heartbeat IPC: 0.729455 cumulative IPC: 0.381649 (Simulation time: 2 hr 33 min 41 sec) 
Heartbeat CPU 0 instructions: 76000000 cycles: 177654494 heartbeat IPC: 0.314268 cumulative IPC: 0.380414 (Simulation time: 2 hr 35 min 49 sec) 
Heartbeat CPU 0 instructions: 77000000 cycles: 180016474 heartbeat IPC: 0.423374 cumulative IPC: 0.380991 (Simulation time: 2 hr 37 min 45 sec) 
Heartbeat CPU 0 instructions: 78000003 cycles: 182473417 heartbeat IPC: 0.407011 cumulative IPC: 0.381349 (Simulation time: 2 hr 39 min 20 sec) 
Heartbeat CPU 0 instructions: 79000001 cycles: 185446457 heartbeat IPC: 0.336355 cumulative IPC: 0.380611 (Simulation time: 2 hr 41 min 38 sec) 
Heartbeat CPU 0 instructions: 80000000 cycles: 187992666 heartbeat IPC: 0.39274 cumulative IPC: 0.380779 (Simulation time: 2 hr 43 min 39 sec) 
Heartbeat CPU 0 instructions: 81000003 cycles: 190934860 heartbeat IPC: 0.339883 cumulative IPC: 0.380135 (Simulation time: 2 hr 45 min 53 sec) 
Heartbeat CPU 0 instructions: 82000000 cycles: 192678278 heartbeat IPC: 0.573584 cumulative IPC: 0.381924 (Simulation time: 2 hr 47 min 34 sec) 
Heartbeat CPU 0 instructions: 83000001 cycles: 194007536 heartbeat IPC: 0.7523 cumulative IPC: 0.384517 (Simulation time: 2 hr 49 min 1 sec) 
Heartbeat CPU 0 instructions: 84000000 cycles: 197121901 heartbeat IPC: 0.321092 cumulative IPC: 0.383494 (Simulation time: 2 hr 51 min 2 sec) 
Heartbeat CPU 0 instructions: 85000000 cycles: 199468825 heartbeat IPC: 0.42609 cumulative IPC: 0.384006 (Simulation time: 2 hr 52 min 50 sec) 
Heartbeat CPU 0 instructions: 86000000 cycles: 202022101 heartbeat IPC: 0.391654 cumulative IPC: 0.384104 (Simulation time: 2 hr 54 min 39 sec) 
Heartbeat CPU 0 instructions: 87000000 cycles: 204767977 heartbeat IPC: 0.364183 cumulative IPC: 0.383832 (Simulation time: 2 hr 56 min 53 sec) 
Heartbeat CPU 0 instructions: 88000000 cycles: 206920418 heartbeat IPC: 0.464589 cumulative IPC: 0.384689 (Simulation time: 2 hr 58 min 51 sec) 
Heartbeat CPU 0 instructions: 89000001 cycles: 210215786 heartbeat IPC: 0.303457 cumulative IPC: 0.38339 (Simulation time: 3 hr 1 min 28 sec) 
Heartbeat CPU 0 instructions: 90000002 cycles: 211563181 heartbeat IPC: 0.742174 cumulative IPC: 0.385721 (Simulation time: 3 hr 2 min 55 sec) 
Heartbeat CPU 0 instructions: 91000000 cycles: 212972828 heartbeat IPC: 0.709396 cumulative IPC: 0.387906 (Simulation time: 3 hr 4 min 33 sec) 
Heartbeat CPU 0 instructions: 92000000 cycles: 216005310 heartbeat IPC: 0.329763 cumulative IPC: 0.387073 (Simulation time: 3 hr 6 min 40 sec) 
Heartbeat CPU 0 instructions: 93000000 cycles: 218530843 heartbeat IPC: 0.395956 cumulative IPC: 0.387178 (Simulation time: 3 hr 8 min 24 sec) 
Heartbeat CPU 0 instructions: 94000001 cycles: 221016821 heartbeat IPC: 0.402257 cumulative IPC: 0.387351 (Simulation time: 3 hr 10 min 5 sec) 
Heartbeat CPU 0 instructions: 95000003 cycles: 223944493 heartbeat IPC: 0.341569 cumulative IPC: 0.386741 (Simulation time: 3 hr 12 min 16 sec) 
Heartbeat CPU 0 instructions: 96000000 cycles: 225844676 heartbeat IPC: 0.526264 cumulative IPC: 0.387937 (Simulation time: 3 hr 14 min 32 sec) 
Heartbeat CPU 0 instructions: 97000003 cycles: 228979614 heartbeat IPC: 0.318987 cumulative IPC: 0.386975 (Simulation time: 3 hr 17 min 2 sec) 
Heartbeat CPU 0 instructions: 98000003 cycles: 230318767 heartbeat IPC: 0.746741 cumulative IPC: 0.389106 (Simulation time: 3 hr 18 min 35 sec) 
Heartbeat CPU 0 instructions: 99000000 cycles: 232664819 heartbeat IPC: 0.426247 cumulative IPC: 0.389487 (Simulation time: 3 hr 20 min 40 sec) 
Heartbeat CPU 0 instructions: 100000000 cycles: 235145320 heartbeat IPC: 0.403144 cumulative IPC: 0.389634 (Simulation time: 3 hr 22 min 57 sec) 
Heartbeat CPU 0 instructions: 101000001 cycles: 237597080 heartbeat IPC: 0.407871 cumulative IPC: 0.389825 (Simulation time: 3 hr 24 min 44 sec) 
Heartbeat CPU 0 instructions: 102000002 cycles: 240230061 heartbeat IPC: 0.379798 cumulative IPC: 0.389713 (Simulation time: 3 hr 26 min 54 sec) 
Heartbeat CPU 0 instructions: 103000002 cycles: 243072090 heartbeat IPC: 0.351861 cumulative IPC: 0.389263 (Simulation time: 3 hr 29 min 31 sec) 
Heartbeat CPU 0 instructions: 104000000 cycles: 245272428 heartbeat IPC: 0.454475 cumulative IPC: 0.389858 (Simulation time: 3 hr 31 min 27 sec) 
Heartbeat CPU 0 instructions: 105000000 cycles: 247693345 heartbeat IPC: 0.413067 cumulative IPC: 0.390089 (Simulation time: 3 hr 33 min 10 sec) 
Heartbeat CPU 0 instructions: 106000001 cycles: 249024787 heartbeat IPC: 0.751066 cumulative IPC: 0.392052 (Simulation time: 3 hr 34 min 33 sec) 
Heartbeat CPU 0 instructions: 107000001 cycles: 251960993 heartbeat IPC: 0.340576 cumulative IPC: 0.391442 (Simulation time: 3 hr 36 min 45 sec) 
Heartbeat CPU 0 instructions: 108000000 cycles: 254110940 heartbeat IPC: 0.465127 cumulative IPC: 0.392076 (Simulation time: 3 hr 38 min 22 sec) 
Heartbeat CPU 0 instructions: 109000003 cycles: 256636323 heartbeat IPC: 0.395981 cumulative IPC: 0.392115 (Simulation time: 3 hr 40 min 23 sec) 
Heartbeat CPU 0 instructions: 110000001 cycles: 259495650 heartbeat IPC: 0.349732 cumulative IPC: 0.39164 (Simulation time: 3 hr 42 min 54 sec) 
Finished CPU 0 instructions: 100000003 cycles: 255336500 cummulative IPC: 0.39164 (Simulation time: 3 hr 42 min 54 sec) 

ChampSim completed all CPUs

Region of Interest Statistics

CPU 0 cummulative IPC: 0.39164 instructions: 100000003 cycles: 255336500
LLC TOTAL     ACCESS:    6604435  HIT:    2495985  MISS:    4108450
LLC LOAD      ACCESS:    1699789  HIT:     676641  MISS:    1023148
LLC RFO       ACCESS:     658501  HIT:     267776  MISS:     390725
LLC PREFETCH  ACCESS:    2685479  HIT:     795389  MISS:    1890090
LLC WRITEBACK ACCESS:    1560666  HIT:     756179  MISS:     804487
