
*** ChampSim Multicore Out-of-Order Simulator ***

Warmup Instructions: 10000000
Simulation Instructions: 100000000
Configuration: 2
Number of CPUs: 1
LLC sets: 2048
LLC ways: 16
Off-chip DRAM Channels: 1 Width: 64-bit Data Rate: 1600 MT/s

CPU 0 runs /datasets/cs240c-wi22-a00-public/data/Assignment2-gz/wrf_1212B.trace.gz
CPU 0 L1D next line prefetcher
CPU 0 L2C IP-based stride prefetcher
config 2, num_core 1, llc_sets 2048
Heartbeat CPU 0 instructions: 1000001 cycles: 598662 heartbeat IPC: 1.67039 cumulative IPC: 1.67039 (Simulation time: 0 hr 3 min 12 sec) 
Heartbeat CPU 0 instructions: 2000000 cycles: 1197120 heartbeat IPC: 1.67096 cumulative IPC: 1.67068 (Simulation time: 0 hr 5 min 38 sec) 
Heartbeat CPU 0 instructions: 3000001 cycles: 1795978 heartbeat IPC: 1.66985 cumulative IPC: 1.6704 (Simulation time: 0 hr 8 min 38 sec) 
Heartbeat CPU 0 instructions: 4000000 cycles: 2394089 heartbeat IPC: 1.67193 cumulative IPC: 1.67078 (Simulation time: 0 hr 11 min 30 sec) 
Heartbeat CPU 0 instructions: 5000000 cycles: 2993055 heartbeat IPC: 1.66954 cumulative IPC: 1.67053 (Simulation time: 0 hr 14 min 35 sec) 
Heartbeat CPU 0 instructions: 6000001 cycles: 3592670 heartbeat IPC: 1.66774 cumulative IPC: 1.67007 (Simulation time: 0 hr 17 min 41 sec) 
Heartbeat CPU 0 instructions: 7000001 cycles: 4190671 heartbeat IPC: 1.67224 cumulative IPC: 1.67038 (Simulation time: 0 hr 20 min 32 sec) 
Heartbeat CPU 0 instructions: 8000000 cycles: 4788879 heartbeat IPC: 1.67166 cumulative IPC: 1.67054 (Simulation time: 0 hr 23 min 24 sec) 
Heartbeat CPU 0 instructions: 9000002 cycles: 5387798 heartbeat IPC: 1.66968 cumulative IPC: 1.67044 (Simulation time: 0 hr 26 min 20 sec) 
Heartbeat CPU 0 instructions: 10000001 cycles: 5987363 heartbeat IPC: 1.66787 cumulative IPC: 1.67018 (Simulation time: 0 hr 29 min 8 sec) 

Warmup complete CPU 0 instructions: 10000001 cycles: 5987363 (Simulation time: 0 hr 29 min 8 sec) 

Heartbeat CPU 0 instructions: 11000003 cycles: 7750492 heartbeat IPC: 0.567175 cumulative IPC: 0.567175 (Simulation time: 0 hr 32 min 26 sec) 
Heartbeat CPU 0 instructions: 12000000 cycles: 9523659 heartbeat IPC: 0.563961 cumulative IPC: 0.565563 (Simulation time: 0 hr 35 min 41 sec) 
Heartbeat CPU 0 instructions: 13000000 cycles: 11311526 heartbeat IPC: 0.559326 cumulative IPC: 0.563469 (Simulation time: 0 hr 39 min 3 sec) 
Heartbeat CPU 0 instructions: 14000002 cycles: 13098327 heartbeat IPC: 0.559661 cumulative IPC: 0.562512 (Simulation time: 0 hr 42 min 15 sec) 
Heartbeat CPU 0 instructions: 15000003 cycles: 14895531 heartbeat IPC: 0.55642 cumulative IPC: 0.561283 (Simulation time: 0 hr 45 min 19 sec) 
Heartbeat CPU 0 instructions: 16000000 cycles: 16643289 heartbeat IPC: 0.57216 cumulative IPC: 0.563067 (Simulation time: 0 hr 48 min 31 sec) 
Heartbeat CPU 0 instructions: 17000000 cycles: 18424743 heartbeat IPC: 0.561339 cumulative IPC: 0.562819 (Simulation time: 0 hr 51 min 43 sec) 
Heartbeat CPU 0 instructions: 18000000 cycles: 20206260 heartbeat IPC: 0.561319 cumulative IPC: 0.562631 (Simulation time: 0 hr 55 min 2 sec) 
Heartbeat CPU 0 instructions: 19000003 cycles: 21984978 heartbeat IPC: 0.562204 cumulative IPC: 0.562584 (Simulation time: 0 hr 58 min 22 sec) 
Heartbeat CPU 0 instructions: 20000000 cycles: 23738993 heartbeat IPC: 0.570119 cumulative IPC: 0.563329 (Simulation time: 1 hr 1 min 47 sec) 
Heartbeat CPU 0 instructions: 21000001 cycles: 25509230 heartbeat IPC: 0.564897 cumulative IPC: 0.563471 (Simulation time: 1 hr 5 min 0 sec) 
Heartbeat CPU 0 instructions: 22000001 cycles: 27293724 heartbeat IPC: 0.560383 cumulative IPC: 0.563212 (Simulation time: 1 hr 8 min 21 sec) 
Heartbeat CPU 0 instructions: 23000000 cycles: 29081048 heartbeat IPC: 0.559495 cumulative IPC: 0.562924 (Simulation time: 1 hr 11 min 44 sec) 
Heartbeat CPU 0 instructions: 24000000 cycles: 30870310 heartbeat IPC: 0.55889 cumulative IPC: 0.562634 (Simulation time: 1 hr 15 min 11 sec) 
Heartbeat CPU 0 instructions: 25000002 cycles: 32618166 heartbeat IPC: 0.572131 cumulative IPC: 0.563258 (Simulation time: 1 hr 18 min 9 sec) 
Heartbeat CPU 0 instructions: 26000000 cycles: 34400752 heartbeat IPC: 0.560982 cumulative IPC: 0.563115 (Simulation time: 1 hr 20 min 57 sec) 
Heartbeat CPU 0 instructions: 27000000 cycles: 36184054 heartbeat IPC: 0.560758 cumulative IPC: 0.562976 (Simulation time: 1 hr 24 min 10 sec) 
Heartbeat CPU 0 instructions: 28000000 cycles: 37963514 heartbeat IPC: 0.561968 cumulative IPC: 0.562919 (Simulation time: 1 hr 27 min 25 sec) 
Heartbeat CPU 0 instructions: 29000000 cycles: 39719047 heartbeat IPC: 0.569628 cumulative IPC: 0.563269 (Simulation time: 1 hr 30 min 14 sec) 
Heartbeat CPU 0 instructions: 30000003 cycles: 41480936 heartbeat IPC: 0.567574 cumulative IPC: 0.563482 (Simulation time: 1 hr 33 min 18 sec) 
Heartbeat CPU 0 instructions: 31000000 cycles: 43264094 heartbeat IPC: 0.560801 cumulative IPC: 0.563354 (Simulation time: 1 hr 36 min 8 sec) 
Heartbeat CPU 0 instructions: 32000000 cycles: 45045767 heartbeat IPC: 0.56127 cumulative IPC: 0.563259 (Simulation time: 1 hr 39 min 6 sec) 
Heartbeat CPU 0 instructions: 33000000 cycles: 46836393 heartbeat IPC: 0.558464 cumulative IPC: 0.563049 (Simulation time: 1 hr 41 min 51 sec) 
Heartbeat CPU 0 instructions: 34000000 cycles: 48575341 heartbeat IPC: 0.57506 cumulative IPC: 0.563539 (Simulation time: 1 hr 44 min 53 sec) 
Heartbeat CPU 0 instructions: 35000003 cycles: 50358710 heartbeat IPC: 0.560738 cumulative IPC: 0.563427 (Simulation time: 1 hr 47 min 41 sec) 
Heartbeat CPU 0 instructions: 36000000 cycles: 52140014 heartbeat IPC: 0.561385 cumulative IPC: 0.563348 (Simulation time: 1 hr 50 min 20 sec) 
Heartbeat CPU 0 instructions: 37000001 cycles: 53924291 heartbeat IPC: 0.560452 cumulative IPC: 0.56324 (Simulation time: 1 hr 53 min 1 sec) 
Heartbeat CPU 0 instructions: 38000000 cycles: 55681973 heartbeat IPC: 0.568931 cumulative IPC: 0.563441 (Simulation time: 1 hr 56 min 3 sec) 
Heartbeat CPU 0 instructions: 39000000 cycles: 57437472 heartbeat IPC: 0.569639 cumulative IPC: 0.563653 (Simulation time: 1 hr 59 min 5 sec) 
Heartbeat CPU 0 instructions: 40000000 cycles: 59219289 heartbeat IPC: 0.561225 cumulative IPC: 0.563572 (Simulation time: 2 hr 1 min 44 sec) 
Heartbeat CPU 0 instructions: 41000001 cycles: 61001368 heartbeat IPC: 0.561143 cumulative IPC: 0.563493 (Simulation time: 2 hr 4 min 46 sec) 
Heartbeat CPU 0 instructions: 42000003 cycles: 62791866 heartbeat IPC: 0.558505 cumulative IPC: 0.563336 (Simulation time: 2 hr 7 min 50 sec) 
Heartbeat CPU 0 instructions: 43000001 cycles: 64520147 heartbeat IPC: 0.578608 cumulative IPC: 0.563787 (Simulation time: 2 hr 11 min 3 sec) 
Heartbeat CPU 0 instructions: 44000000 cycles: 66300807 heartbeat IPC: 0.561589 cumulative IPC: 0.563722 (Simulation time: 2 hr 14 min 5 sec) 
Heartbeat CPU 0 instructions: 45000001 cycles: 68081550 heartbeat IPC: 0.561564 cumulative IPC: 0.56366 (Simulation time: 2 hr 17 min 26 sec) 
Heartbeat CPU 0 instructions: 46000001 cycles: 69860817 heartbeat IPC: 0.562029 cumulative IPC: 0.563614 (Simulation time: 2 hr 20 min 55 sec) 
Heartbeat CPU 0 instructions: 47000000 cycles: 71623590 heartbeat IPC: 0.567287 cumulative IPC: 0.563713 (Simulation time: 2 hr 24 min 26 sec) 
Heartbeat CPU 0 instructions: 48000000 cycles: 73370087 heartbeat IPC: 0.572575 cumulative IPC: 0.563943 (Simulation time: 2 hr 27 min 43 sec) 
Heartbeat CPU 0 instructions: 49000002 cycles: 75151475 heartbeat IPC: 0.561361 cumulative IPC: 0.563876 (Simulation time: 2 hr 30 min 56 sec) 
Heartbeat CPU 0 instructions: 50000002 cycles: 76935334 heartbeat IPC: 0.560582 cumulative IPC: 0.563793 (Simulation time: 2 hr 34 min 37 sec) 
Heartbeat CPU 0 instructions: 51000002 cycles: 78750967 heartbeat IPC: 0.550772 cumulative IPC: 0.563469 (Simulation time: 2 hr 38 min 8 sec) 
Heartbeat CPU 0 instructions: 52000000 cycles: 80477331 heartbeat IPC: 0.579251 cumulative IPC: 0.563834 (Simulation time: 2 hr 41 min 55 sec) 
Heartbeat CPU 0 instructions: 53000002 cycles: 82245750 heartbeat IPC: 0.565478 cumulative IPC: 0.563872 (Simulation time: 2 hr 45 min 38 sec) 
Heartbeat CPU 0 instructions: 54000001 cycles: 84028304 heartbeat IPC: 0.560992 cumulative IPC: 0.563807 (Simulation time: 2 hr 48 min 58 sec) 
Heartbeat CPU 0 instructions: 55000000 cycles: 85816214 heartbeat IPC: 0.559312 cumulative IPC: 0.563706 (Simulation time: 2 hr 52 min 34 sec) 
Heartbeat CPU 0 instructions: 56000000 cycles: 87598657 heartbeat IPC: 0.561028 cumulative IPC: 0.563647 (Simulation time: 2 hr 56 min 27 sec) 
Heartbeat CPU 0 instructions: 57000001 cycles: 89333603 heartbeat IPC: 0.576387 cumulative IPC: 0.563913 (Simulation time: 3 hr 0 min 17 sec) 
Heartbeat CPU 0 instructions: 58000001 cycles: 91124529 heartbeat IPC: 0.55837 cumulative IPC: 0.563796 (Simulation time: 3 hr 3 min 37 sec) 
Heartbeat CPU 0 instructions: 59000000 cycles: 92907805 heartbeat IPC: 0.560765 cumulative IPC: 0.563734 (Simulation time: 3 hr 6 min 19 sec) 
Heartbeat CPU 0 instructions: 60000000 cycles: 94694709 heartbeat IPC: 0.559627 cumulative IPC: 0.563651 (Simulation time: 3 hr 9 min 12 sec) 
Heartbeat CPU 0 instructions: 61000001 cycles: 96439013 heartbeat IPC: 0.573295 cumulative IPC: 0.563837 (Simulation time: 3 hr 11 min 41 sec) 
Heartbeat CPU 0 instructions: 62000001 cycles: 98182261 heartbeat IPC: 0.573642 cumulative IPC: 0.564023 (Simulation time: 3 hr 14 min 35 sec) 
Heartbeat CPU 0 instructions: 63000002 cycles: 99968090 heartbeat IPC: 0.559965 cumulative IPC: 0.563945 (Simulation time: 3 hr 17 min 32 sec) 
Heartbeat CPU 0 instructions: 64000000 cycles: 101750390 heartbeat IPC: 0.561072 cumulative IPC: 0.563892 (Simulation time: 3 hr 20 min 25 sec) 
Heartbeat CPU 0 instructions: 65000000 cycles: 103543931 heartbeat IPC: 0.557556 cumulative IPC: 0.563775 (Simulation time: 3 hr 22 min 49 sec) 
Heartbeat CPU 0 instructions: 66000001 cycles: 105259307 heartbeat IPC: 0.582963 cumulative IPC: 0.564107 (Simulation time: 3 hr 25 min 22 sec) 
Heartbeat CPU 0 instructions: 67000002 cycles: 107015823 heartbeat IPC: 0.569309 cumulative IPC: 0.564197 (Simulation time: 3 hr 27 min 34 sec) 
Heartbeat CPU 0 instructions: 68000000 cycles: 108801377 heartbeat IPC: 0.560049 cumulative IPC: 0.564125 (Simulation time: 3 hr 30 min 6 sec) 
Heartbeat CPU 0 instructions: 69000001 cycles: 110584289 heartbeat IPC: 0.560881 cumulative IPC: 0.56407 (Simulation time: 3 hr 32 min 28 sec) 
Heartbeat CPU 0 instructions: 70000000 cycles: 112359513 heartbeat IPC: 0.563309 cumulative IPC: 0.564057 (Simulation time: 3 hr 34 min 52 sec) 
Heartbeat CPU 0 instructions: 71000001 cycles: 114075006 heartbeat IPC: 0.582923 cumulative IPC: 0.564357 (Simulation time: 3 hr 37 min 13 sec) 
Heartbeat CPU 0 instructions: 72000000 cycles: 115851915 heartbeat IPC: 0.562774 cumulative IPC: 0.564331 (Simulation time: 3 hr 39 min 31 sec) 
Heartbeat CPU 0 instructions: 73000001 cycles: 117650541 heartbeat IPC: 0.555981 cumulative IPC: 0.564197 (Simulation time: 3 hr 42 min 6 sec) 
Heartbeat CPU 0 instructions: 74000000 cycles: 119431381 heartbeat IPC: 0.561532 cumulative IPC: 0.564155 (Simulation time: 3 hr 44 min 22 sec) 
Heartbeat CPU 0 instructions: 75000002 cycles: 121192101 heartbeat IPC: 0.567951 cumulative IPC: 0.564213 (Simulation time: 3 hr 46 min 30 sec) 
Heartbeat CPU 0 instructions: 76000000 cycles: 122926876 heartbeat IPC: 0.576442 cumulative IPC: 0.564394 (Simulation time: 3 hr 48 min 43 sec) 
Heartbeat CPU 0 instructions: 77000003 cycles: 124704337 heartbeat IPC: 0.562602 cumulative IPC: 0.564367 (Simulation time: 3 hr 50 min 52 sec) 
Heartbeat CPU 0 instructions: 78000000 cycles: 126485950 heartbeat IPC: 0.561287 cumulative IPC: 0.564322 (Simulation time: 3 hr 52 min 53 sec) 
Heartbeat CPU 0 instructions: 79000000 cycles: 128284648 heartbeat IPC: 0.555958 cumulative IPC: 0.564199 (Simulation time: 3 hr 55 min 23 sec) 
Heartbeat CPU 0 instructions: 80000000 cycles: 130013246 heartbeat IPC: 0.578503 cumulative IPC: 0.564398 (Simulation time: 3 hr 57 min 42 sec) 
Heartbeat CPU 0 instructions: 81000003 cycles: 131789387 heartbeat IPC: 0.56302 cumulative IPC: 0.564379 (Simulation time: 3 hr 59 min 59 sec) 
Heartbeat CPU 0 instructions: 82000002 cycles: 133591959 heartbeat IPC: 0.554762 cumulative IPC: 0.564243 (Simulation time: 4 hr 2 min 18 sec) 
Heartbeat CPU 0 instructions: 83000001 cycles: 135386856 heartbeat IPC: 0.557134 cumulative IPC: 0.564144 (Simulation time: 4 hr 4 min 28 sec) 
Heartbeat CPU 0 instructions: 84000000 cycles: 137172111 heartbeat IPC: 0.560144 cumulative IPC: 0.56409 (Simulation time: 4 hr 6 min 37 sec) 
Heartbeat CPU 0 instructions: 85000000 cycles: 138889529 heartbeat IPC: 0.582269 cumulative IPC: 0.564325 (Simulation time: 4 hr 8 min 45 sec) 
Heartbeat CPU 0 instructions: 86000001 cycles: 140675180 heartbeat IPC: 0.56002 cumulative IPC: 0.564268 (Simulation time: 4 hr 10 min 49 sec) 
Heartbeat CPU 0 instructions: 87000000 cycles: 142459452 heartbeat IPC: 0.560452 cumulative IPC: 0.564218 (Simulation time: 4 hr 12 min 54 sec) 
Heartbeat CPU 0 instructions: 88000000 cycles: 144236459 heartbeat IPC: 0.562744 cumulative IPC: 0.564199 (Simulation time: 4 hr 14 min 52 sec) 
Heartbeat CPU 0 instructions: 89000000 cycles: 145994456 heartbeat IPC: 0.568829 cumulative IPC: 0.564257 (Simulation time: 4 hr 16 min 54 sec) 
Heartbeat CPU 0 instructions: 90000000 cycles: 147750187 heartbeat IPC: 0.569563 cumulative IPC: 0.564323 (Simulation time: 4 hr 18 min 50 sec) 
Heartbeat CPU 0 instructions: 91000001 cycles: 149529497 heartbeat IPC: 0.562016 cumulative IPC: 0.564294 (Simulation time: 4 hr 20 min 59 sec) 
Heartbeat CPU 0 instructions: 92000000 cycles: 151312420 heartbeat IPC: 0.560876 cumulative IPC: 0.564252 (Simulation time: 4 hr 23 min 1 sec) 
Heartbeat CPU 0 instructions: 93000003 cycles: 153099332 heartbeat IPC: 0.559626 cumulative IPC: 0.564196 (Simulation time: 4 hr 25 min 3 sec) 
Heartbeat CPU 0 instructions: 94000001 cycles: 154825887 heartbeat IPC: 0.579187 cumulative IPC: 0.56437 (Simulation time: 4 hr 26 min 59 sec) 
Heartbeat CPU 0 instructions: 95000001 cycles: 156606910 heartbeat IPC: 0.561475 cumulative IPC: 0.564336 (Simulation time: 4 hr 28 min 55 sec) 
Heartbeat CPU 0 instructions: 96000000 cycles: 158391409 heartbeat IPC: 0.560381 cumulative IPC: 0.564289 (Simulation time: 4 hr 30 min 43 sec) 
Heartbeat CPU 0 instructions: 97000000 cycles: 160173288 heartbeat IPC: 0.561205 cumulative IPC: 0.564254 (Simulation time: 4 hr 32 min 34 sec) 
Heartbeat CPU 0 instructions: 98000000 cycles: 161939592 heartbeat IPC: 0.566154 cumulative IPC: 0.564275 (Simulation time: 4 hr 34 min 16 sec) 
Heartbeat CPU 0 instructions: 99000000 cycles: 163694296 heartbeat IPC: 0.569897 cumulative IPC: 0.564338 (Simulation time: 4 hr 35 min 59 sec) 
Heartbeat CPU 0 instructions: 100000000 cycles: 165472456 heartbeat IPC: 0.562379 cumulative IPC: 0.564316 (Simulation time: 4 hr 37 min 41 sec) 
Heartbeat CPU 0 instructions: 101000000 cycles: 167250280 heartbeat IPC: 0.562485 cumulative IPC: 0.564296 (Simulation time: 4 hr 39 min 26 sec) 
Heartbeat CPU 0 instructions: 102000003 cycles: 169044592 heartbeat IPC: 0.557318 cumulative IPC: 0.564219 (Simulation time: 4 hr 40 min 50 sec) 
Heartbeat CPU 0 instructions: 103000001 cycles: 170775917 heartbeat IPC: 0.577591 cumulative IPC: 0.56436 (Simulation time: 4 hr 41 min 57 sec) 
Heartbeat CPU 0 instructions: 104000000 cycles: 172561457 heartbeat IPC: 0.560054 cumulative IPC: 0.564313 (Simulation time: 4 hr 43 min 3 sec) 
Heartbeat CPU 0 instructions: 105000002 cycles: 174341606 heartbeat IPC: 0.561752 cumulative IPC: 0.564286 (Simulation time: 4 hr 44 min 2 sec) 
Heartbeat CPU 0 instructions: 106000001 cycles: 176118911 heartbeat IPC: 0.562649 cumulative IPC: 0.564269 (Simulation time: 4 hr 45 min 0 sec) 
Heartbeat CPU 0 instructions: 107000003 cycles: 177883540 heartbeat IPC: 0.566692 cumulative IPC: 0.564294 (Simulation time: 4 hr 45 min 54 sec) 
Heartbeat CPU 0 instructions: 108000000 cycles: 179649145 heartbeat IPC: 0.566376 cumulative IPC: 0.564315 (Simulation time: 4 hr 46 min 53 sec) 
Heartbeat CPU 0 instructions: 109000002 cycles: 181433807 heartbeat IPC: 0.560331 cumulative IPC: 0.564275 (Simulation time: 4 hr 47 min 48 sec) 
Heartbeat CPU 0 instructions: 110000003 cycles: 183212970 heartbeat IPC: 0.562063 cumulative IPC: 0.564253 (Simulation time: 4 hr 48 min 43 sec) 
Finished CPU 0 instructions: 100000002 cycles: 177225607 cummulative IPC: 0.564253 (Simulation time: 4 hr 48 min 43 sec) 

ChampSim completed all CPUs

Region of Interest Statistics

CPU 0 cummulative IPC: 0.564253 instructions: 100000002 cycles: 177225607
LLC TOTAL     ACCESS:     134788  HIT:      10664  MISS:     124124
LLC LOAD      ACCESS:      14793  HIT:       1027  MISS:      13766
LLC RFO       ACCESS:       1240  HIT:        332  MISS:        908
LLC PREFETCH  ACCESS:      79626  HIT:       4804  MISS:      74822
LLC WRITEBACK ACCESS:      39129  HIT:       4501  MISS:      34628
