
*** ChampSim Multicore Out-of-Order Simulator ***

Warmup Instructions: 10000000
Simulation Instructions: 100000000
Configuration: 2
Number of CPUs: 1
LLC sets: 2048
LLC ways: 16
Off-chip DRAM Channels: 1 Width: 64-bit Data Rate: 1600 MT/s

CPU 0 runs /datasets/cs240c-wi22-a00-public/data/Assignment2-gz/calculix_3812B.trace.gz
CPU 0 L1D next line prefetcher
CPU 0 L2C IP-based stride prefetcher
config 2, num_core 1, llc_sets 2048
Heartbeat CPU 0 instructions: 1000001 cycles: 478705 heartbeat IPC: 2.08897 cumulative IPC: 2.08897 (Simulation time: 0 hr 2 min 49 sec) 
Heartbeat CPU 0 instructions: 2000002 cycles: 956508 heartbeat IPC: 2.09291 cumulative IPC: 2.09094 (Simulation time: 0 hr 5 min 40 sec) 
Heartbeat CPU 0 instructions: 3000002 cycles: 1435024 heartbeat IPC: 2.08979 cumulative IPC: 2.09056 (Simulation time: 0 hr 8 min 31 sec) 
Heartbeat CPU 0 instructions: 4000000 cycles: 1907507 heartbeat IPC: 2.11647 cumulative IPC: 2.09698 (Simulation time: 0 hr 11 min 21 sec) 
Heartbeat CPU 0 instructions: 5000000 cycles: 2355870 heartbeat IPC: 2.23034 cumulative IPC: 2.12236 (Simulation time: 0 hr 13 min 46 sec) 
Heartbeat CPU 0 instructions: 6000003 cycles: 2761273 heartbeat IPC: 2.46669 cumulative IPC: 2.17291 (Simulation time: 0 hr 15 min 59 sec) 
Heartbeat CPU 0 instructions: 7000002 cycles: 3154357 heartbeat IPC: 2.54398 cumulative IPC: 2.21915 (Simulation time: 0 hr 18 min 15 sec) 
Heartbeat CPU 0 instructions: 8000000 cycles: 3547468 heartbeat IPC: 2.54381 cumulative IPC: 2.25513 (Simulation time: 0 hr 20 min 31 sec) 
Heartbeat CPU 0 instructions: 9000000 cycles: 3940426 heartbeat IPC: 2.5448 cumulative IPC: 2.28402 (Simulation time: 0 hr 22 min 43 sec) 
Heartbeat CPU 0 instructions: 10000003 cycles: 4333477 heartbeat IPC: 2.54421 cumulative IPC: 2.30762 (Simulation time: 0 hr 25 min 0 sec) 

Warmup complete CPU 0 instructions: 10000003 cycles: 4333477 (Simulation time: 0 hr 25 min 0 sec) 

Heartbeat CPU 0 instructions: 11000001 cycles: 4832830 heartbeat IPC: 2.00259 cumulative IPC: 2.00259 (Simulation time: 0 hr 27 min 26 sec) 
Heartbeat CPU 0 instructions: 12000000 cycles: 5325564 heartbeat IPC: 2.02949 cumulative IPC: 2.01595 (Simulation time: 0 hr 29 min 50 sec) 
Heartbeat CPU 0 instructions: 13000002 cycles: 5817443 heartbeat IPC: 2.03302 cumulative IPC: 2.02161 (Simulation time: 0 hr 32 min 18 sec) 
Heartbeat CPU 0 instructions: 14000000 cycles: 6626217 heartbeat IPC: 1.23644 cumulative IPC: 1.74464 (Simulation time: 0 hr 35 min 6 sec) 
Heartbeat CPU 0 instructions: 15000003 cycles: 7165037 heartbeat IPC: 1.85591 cumulative IPC: 1.76581 (Simulation time: 0 hr 37 min 34 sec) 
Heartbeat CPU 0 instructions: 16000000 cycles: 7693699 heartbeat IPC: 1.89156 cumulative IPC: 1.7856 (Simulation time: 0 hr 40 min 2 sec) 
Heartbeat CPU 0 instructions: 17000001 cycles: 8214153 heartbeat IPC: 1.9214 cumulative IPC: 1.80381 (Simulation time: 0 hr 42 min 27 sec) 
Heartbeat CPU 0 instructions: 18000001 cycles: 8715778 heartbeat IPC: 1.99352 cumulative IPC: 1.82552 (Simulation time: 0 hr 44 min 47 sec) 
Heartbeat CPU 0 instructions: 19000001 cycles: 9220450 heartbeat IPC: 1.98149 cumulative IPC: 1.84163 (Simulation time: 0 hr 47 min 5 sec) 
Heartbeat CPU 0 instructions: 20000000 cycles: 9820334 heartbeat IPC: 1.66699 cumulative IPC: 1.82254 (Simulation time: 0 hr 49 min 25 sec) 
Heartbeat CPU 0 instructions: 21000003 cycles: 10373622 heartbeat IPC: 1.80738 cumulative IPC: 1.82115 (Simulation time: 0 hr 51 min 58 sec) 
Heartbeat CPU 0 instructions: 22000002 cycles: 10935757 heartbeat IPC: 1.77893 cumulative IPC: 1.81755 (Simulation time: 0 hr 54 min 13 sec) 
Heartbeat CPU 0 instructions: 23000001 cycles: 11491570 heartbeat IPC: 1.79916 cumulative IPC: 1.81613 (Simulation time: 0 hr 56 min 24 sec) 
Heartbeat CPU 0 instructions: 24000000 cycles: 12058596 heartbeat IPC: 1.76359 cumulative IPC: 1.81227 (Simulation time: 0 hr 58 min 53 sec) 
Heartbeat CPU 0 instructions: 25000003 cycles: 12628173 heartbeat IPC: 1.75569 cumulative IPC: 1.80838 (Simulation time: 1 hr 1 min 18 sec) 
Heartbeat CPU 0 instructions: 26000003 cycles: 13176649 heartbeat IPC: 1.82323 cumulative IPC: 1.80931 (Simulation time: 1 hr 3 min 50 sec) 
Heartbeat CPU 0 instructions: 27000000 cycles: 13710418 heartbeat IPC: 1.87346 cumulative IPC: 1.81296 (Simulation time: 1 hr 6 min 16 sec) 
Heartbeat CPU 0 instructions: 28000000 cycles: 14349576 heartbeat IPC: 1.56456 cumulative IPC: 1.79711 (Simulation time: 1 hr 8 min 38 sec) 
Heartbeat CPU 0 instructions: 29000002 cycles: 14826737 heartbeat IPC: 2.09573 cumulative IPC: 1.81069 (Simulation time: 1 hr 10 min 57 sec) 
Heartbeat CPU 0 instructions: 30000001 cycles: 15376487 heartbeat IPC: 1.81901 cumulative IPC: 1.8111 (Simulation time: 1 hr 12 min 56 sec) 
Heartbeat CPU 0 instructions: 31000001 cycles: 15923333 heartbeat IPC: 1.82867 cumulative IPC: 1.81193 (Simulation time: 1 hr 15 min 25 sec) 
Heartbeat CPU 0 instructions: 32000000 cycles: 16644990 heartbeat IPC: 1.3857 cumulative IPC: 1.78694 (Simulation time: 1 hr 18 min 21 sec) 
Heartbeat CPU 0 instructions: 33000003 cycles: 17349624 heartbeat IPC: 1.41918 cumulative IPC: 1.76704 (Simulation time: 1 hr 21 min 17 sec) 
Heartbeat CPU 0 instructions: 34000000 cycles: 18049704 heartbeat IPC: 1.4284 cumulative IPC: 1.74975 (Simulation time: 1 hr 24 min 27 sec) 
Heartbeat CPU 0 instructions: 35000000 cycles: 18722903 heartbeat IPC: 1.48544 cumulative IPC: 1.73739 (Simulation time: 1 hr 27 min 45 sec) 
Heartbeat CPU 0 instructions: 36000000 cycles: 19364221 heartbeat IPC: 1.55929 cumulative IPC: 1.72979 (Simulation time: 1 hr 30 min 44 sec) 
Heartbeat CPU 0 instructions: 37000002 cycles: 19990038 heartbeat IPC: 1.59791 cumulative IPC: 1.72452 (Simulation time: 1 hr 33 min 32 sec) 
Heartbeat CPU 0 instructions: 38000003 cycles: 20625045 heartbeat IPC: 1.57479 cumulative IPC: 1.71868 (Simulation time: 1 hr 36 min 17 sec) 
Heartbeat CPU 0 instructions: 39000003 cycles: 21393591 heartbeat IPC: 1.30116 cumulative IPC: 1.69987 (Simulation time: 1 hr 38 min 48 sec) 
Heartbeat CPU 0 instructions: 40000000 cycles: 22229544 heartbeat IPC: 1.19624 cumulative IPC: 1.67635 (Simulation time: 1 hr 41 min 35 sec) 
Heartbeat CPU 0 instructions: 41000000 cycles: 23186161 heartbeat IPC: 1.04535 cumulative IPC: 1.64433 (Simulation time: 1 hr 44 min 26 sec) 
Heartbeat CPU 0 instructions: 42000001 cycles: 23810250 heartbeat IPC: 1.60234 cumulative IPC: 1.64298 (Simulation time: 1 hr 47 min 16 sec) 
Heartbeat CPU 0 instructions: 43000000 cycles: 24452784 heartbeat IPC: 1.55634 cumulative IPC: 1.64022 (Simulation time: 1 hr 49 min 57 sec) 
Heartbeat CPU 0 instructions: 44000000 cycles: 25137033 heartbeat IPC: 1.46146 cumulative IPC: 1.63434 (Simulation time: 1 hr 52 min 53 sec) 
Heartbeat CPU 0 instructions: 45000002 cycles: 25811572 heartbeat IPC: 1.4825 cumulative IPC: 1.62957 (Simulation time: 1 hr 55 min 41 sec) 
Heartbeat CPU 0 instructions: 46000002 cycles: 26545399 heartbeat IPC: 1.36272 cumulative IPC: 1.62075 (Simulation time: 1 hr 58 min 28 sec) 
Heartbeat CPU 0 instructions: 47000002 cycles: 27397403 heartbeat IPC: 1.1737 cumulative IPC: 1.60424 (Simulation time: 2 hr 0 min 55 sec) 
Heartbeat CPU 0 instructions: 48000000 cycles: 27861078 heartbeat IPC: 2.15668 cumulative IPC: 1.61512 (Simulation time: 2 hr 3 min 18 sec) 
Heartbeat CPU 0 instructions: 49000000 cycles: 28328768 heartbeat IPC: 2.13817 cumulative IPC: 1.62532 (Simulation time: 2 hr 5 min 31 sec) 
Heartbeat CPU 0 instructions: 50000000 cycles: 28840020 heartbeat IPC: 1.95598 cumulative IPC: 1.63222 (Simulation time: 2 hr 7 min 19 sec) 
Heartbeat CPU 0 instructions: 51000000 cycles: 29475264 heartbeat IPC: 1.5742 cumulative IPC: 1.63075 (Simulation time: 2 hr 9 min 23 sec) 
Heartbeat CPU 0 instructions: 52000000 cycles: 30025722 heartbeat IPC: 1.81667 cumulative IPC: 1.63473 (Simulation time: 2 hr 11 min 6 sec) 
Heartbeat CPU 0 instructions: 53000000 cycles: 30472800 heartbeat IPC: 2.23675 cumulative IPC: 1.64503 (Simulation time: 2 hr 13 min 1 sec) 
Heartbeat CPU 0 instructions: 54000003 cycles: 30919951 heartbeat IPC: 2.23639 cumulative IPC: 1.65498 (Simulation time: 2 hr 14 min 37 sec) 
Heartbeat CPU 0 instructions: 55000001 cycles: 31366757 heartbeat IPC: 2.2381 cumulative IPC: 1.66461 (Simulation time: 2 hr 16 min 37 sec) 
Heartbeat CPU 0 instructions: 56000000 cycles: 31813925 heartbeat IPC: 2.23629 cumulative IPC: 1.67392 (Simulation time: 2 hr 18 min 21 sec) 
Heartbeat CPU 0 instructions: 57000003 cycles: 32261069 heartbeat IPC: 2.23642 cumulative IPC: 1.68292 (Simulation time: 2 hr 19 min 58 sec) 
Heartbeat CPU 0 instructions: 58000000 cycles: 32722564 heartbeat IPC: 2.16686 cumulative IPC: 1.69079 (Simulation time: 2 hr 21 min 41 sec) 
Heartbeat CPU 0 instructions: 59000001 cycles: 33275942 heartbeat IPC: 1.80708 cumulative IPC: 1.69301 (Simulation time: 2 hr 23 min 26 sec) 
Heartbeat CPU 0 instructions: 60000000 cycles: 33809212 heartbeat IPC: 1.87522 cumulative IPC: 1.69631 (Simulation time: 2 hr 25 min 8 sec) 
Heartbeat CPU 0 instructions: 61000003 cycles: 34351034 heartbeat IPC: 1.84563 cumulative IPC: 1.69901 (Simulation time: 2 hr 26 min 58 sec) 
Heartbeat CPU 0 instructions: 62000002 cycles: 34888027 heartbeat IPC: 1.86222 cumulative IPC: 1.70187 (Simulation time: 2 hr 28 min 37 sec) 
Heartbeat CPU 0 instructions: 63000003 cycles: 35431828 heartbeat IPC: 1.83891 cumulative IPC: 1.70427 (Simulation time: 2 hr 30 min 13 sec) 
Heartbeat CPU 0 instructions: 64000000 cycles: 35970743 heartbeat IPC: 1.85557 cumulative IPC: 1.70685 (Simulation time: 2 hr 31 min 40 sec) 
Heartbeat CPU 0 instructions: 65000000 cycles: 36676970 heartbeat IPC: 1.41598 cumulative IPC: 1.7005 (Simulation time: 2 hr 33 min 36 sec) 
Heartbeat CPU 0 instructions: 66000002 cycles: 37273667 heartbeat IPC: 1.6759 cumulative IPC: 1.70005 (Simulation time: 2 hr 35 min 31 sec) 
Heartbeat CPU 0 instructions: 67000002 cycles: 37804909 heartbeat IPC: 1.88238 cumulative IPC: 1.70294 (Simulation time: 2 hr 37 min 18 sec) 
Heartbeat CPU 0 instructions: 68000000 cycles: 38324985 heartbeat IPC: 1.92279 cumulative IPC: 1.70631 (Simulation time: 2 hr 39 min 3 sec) 
Heartbeat CPU 0 instructions: 69000003 cycles: 38908831 heartbeat IPC: 1.71279 cumulative IPC: 1.70642 (Simulation time: 2 hr 40 min 36 sec) 
Heartbeat CPU 0 instructions: 70000003 cycles: 39455373 heartbeat IPC: 1.82969 cumulative IPC: 1.70834 (Simulation time: 2 hr 42 min 29 sec) 
Heartbeat CPU 0 instructions: 71000000 cycles: 40014200 heartbeat IPC: 1.78946 cumulative IPC: 1.70961 (Simulation time: 2 hr 44 min 28 sec) 
Heartbeat CPU 0 instructions: 72000000 cycles: 40566265 heartbeat IPC: 1.81138 cumulative IPC: 1.71116 (Simulation time: 2 hr 46 min 30 sec) 
Heartbeat CPU 0 instructions: 73000001 cycles: 41137736 heartbeat IPC: 1.74987 cumulative IPC: 1.71176 (Simulation time: 2 hr 48 min 11 sec) 
Heartbeat CPU 0 instructions: 74000002 cycles: 41763782 heartbeat IPC: 1.59733 cumulative IPC: 1.70984 (Simulation time: 2 hr 49 min 56 sec) 
Heartbeat CPU 0 instructions: 75000000 cycles: 42313017 heartbeat IPC: 1.82071 cumulative IPC: 1.71145 (Simulation time: 2 hr 51 min 28 sec) 
Heartbeat CPU 0 instructions: 76000000 cycles: 43299295 heartbeat IPC: 1.01391 cumulative IPC: 1.69379 (Simulation time: 2 hr 53 min 58 sec) 
Heartbeat CPU 0 instructions: 77000000 cycles: 44193589 heartbeat IPC: 1.1182 cumulative IPC: 1.68088 (Simulation time: 2 hr 56 min 37 sec) 
Heartbeat CPU 0 instructions: 78000003 cycles: 44949719 heartbeat IPC: 1.32253 cumulative IPC: 1.67421 (Simulation time: 2 hr 59 min 31 sec) 
Heartbeat CPU 0 instructions: 79000000 cycles: 45661462 heartbeat IPC: 1.405 cumulative IPC: 1.66957 (Simulation time: 3 hr 2 min 19 sec) 
Heartbeat CPU 0 instructions: 80000000 cycles: 46346544 heartbeat IPC: 1.45968 cumulative IPC: 1.66615 (Simulation time: 3 hr 5 min 21 sec) 
Heartbeat CPU 0 instructions: 81000001 cycles: 47010932 heartbeat IPC: 1.50515 cumulative IPC: 1.66364 (Simulation time: 3 hr 8 min 4 sec) 
Heartbeat CPU 0 instructions: 82000002 cycles: 47653893 heartbeat IPC: 1.55531 cumulative IPC: 1.66203 (Simulation time: 3 hr 10 min 59 sec) 
Heartbeat CPU 0 instructions: 83000002 cycles: 48477487 heartbeat IPC: 1.21419 cumulative IPC: 1.65368 (Simulation time: 3 hr 13 min 39 sec) 
Heartbeat CPU 0 instructions: 84000000 cycles: 49179005 heartbeat IPC: 1.42548 cumulative IPC: 1.65011 (Simulation time: 3 hr 16 min 7 sec) 
Heartbeat CPU 0 instructions: 85000000 cycles: 49765381 heartbeat IPC: 1.70539 cumulative IPC: 1.65082 (Simulation time: 3 hr 18 min 43 sec) 
Heartbeat CPU 0 instructions: 86000001 cycles: 50353348 heartbeat IPC: 1.70078 cumulative IPC: 1.65146 (Simulation time: 3 hr 21 min 18 sec) 
Heartbeat CPU 0 instructions: 87000002 cycles: 50941155 heartbeat IPC: 1.70124 cumulative IPC: 1.65209 (Simulation time: 3 hr 23 min 42 sec) 
Heartbeat CPU 0 instructions: 88000000 cycles: 51523553 heartbeat IPC: 1.71704 cumulative IPC: 1.65289 (Simulation time: 3 hr 26 min 3 sec) 
Heartbeat CPU 0 instructions: 89000003 cycles: 52101674 heartbeat IPC: 1.72975 cumulative IPC: 1.65382 (Simulation time: 3 hr 28 min 21 sec) 
Heartbeat CPU 0 instructions: 90000003 cycles: 52680223 heartbeat IPC: 1.72846 cumulative IPC: 1.65471 (Simulation time: 3 hr 30 min 51 sec) 
Heartbeat CPU 0 instructions: 91000003 cycles: 53267323 heartbeat IPC: 1.70329 cumulative IPC: 1.6553 (Simulation time: 3 hr 33 min 10 sec) 
Heartbeat CPU 0 instructions: 92000000 cycles: 53729801 heartbeat IPC: 2.16226 cumulative IPC: 1.66004 (Simulation time: 3 hr 35 min 26 sec) 
Heartbeat CPU 0 instructions: 93000000 cycles: 54180528 heartbeat IPC: 2.21864 cumulative IPC: 1.66509 (Simulation time: 3 hr 37 min 40 sec) 
Heartbeat CPU 0 instructions: 94000003 cycles: 54630013 heartbeat IPC: 2.22478 cumulative IPC: 1.6701 (Simulation time: 3 hr 40 min 0 sec) 
Heartbeat CPU 0 instructions: 95000001 cycles: 55256746 heartbeat IPC: 1.59557 cumulative IPC: 1.66918 (Simulation time: 3 hr 42 min 26 sec) 
Heartbeat CPU 0 instructions: 96000000 cycles: 55780169 heartbeat IPC: 1.9105 cumulative IPC: 1.67163 (Simulation time: 3 hr 44 min 56 sec) 
Heartbeat CPU 0 instructions: 97000000 cycles: 56249587 heartbeat IPC: 2.1303 cumulative IPC: 1.67578 (Simulation time: 3 hr 47 min 8 sec) 
Heartbeat CPU 0 instructions: 98000003 cycles: 56718299 heartbeat IPC: 2.13351 cumulative IPC: 1.67988 (Simulation time: 3 hr 49 min 25 sec) 
Heartbeat CPU 0 instructions: 99000000 cycles: 57184817 heartbeat IPC: 2.14353 cumulative IPC: 1.68397 (Simulation time: 3 hr 51 min 33 sec) 
Heartbeat CPU 0 instructions: 100000000 cycles: 57650297 heartbeat IPC: 2.14832 cumulative IPC: 1.68802 (Simulation time: 3 hr 53 min 49 sec) 
Heartbeat CPU 0 instructions: 101000003 cycles: 58115490 heartbeat IPC: 2.14965 cumulative IPC: 1.69202 (Simulation time: 3 hr 55 min 56 sec) 
Heartbeat CPU 0 instructions: 102000002 cycles: 58647361 heartbeat IPC: 1.88015 cumulative IPC: 1.69386 (Simulation time: 3 hr 58 min 5 sec) 
Heartbeat CPU 0 instructions: 103000000 cycles: 59194408 heartbeat IPC: 1.82799 cumulative IPC: 1.6952 (Simulation time: 4 hr 0 min 12 sec) 
Heartbeat CPU 0 instructions: 104000000 cycles: 59739282 heartbeat IPC: 1.83529 cumulative IPC: 1.69657 (Simulation time: 4 hr 2 min 27 sec) 
Heartbeat CPU 0 instructions: 105000000 cycles: 60293586 heartbeat IPC: 1.80406 cumulative IPC: 1.69764 (Simulation time: 4 hr 4 min 45 sec) 
Heartbeat CPU 0 instructions: 106000003 cycles: 60845513 heartbeat IPC: 1.81184 cumulative IPC: 1.69875 (Simulation time: 4 hr 6 min 45 sec) 
Heartbeat CPU 0 instructions: 107000002 cycles: 61394424 heartbeat IPC: 1.82179 cumulative IPC: 1.69994 (Simulation time: 4 hr 8 min 49 sec) 
Heartbeat CPU 0 instructions: 108000000 cycles: 61999043 heartbeat IPC: 1.65393 cumulative IPC: 1.69945 (Simulation time: 4 hr 11 min 8 sec) 
Heartbeat CPU 0 instructions: 109000002 cycles: 62657372 heartbeat IPC: 1.519 cumulative IPC: 1.69742 (Simulation time: 4 hr 13 min 13 sec) 
Heartbeat CPU 0 instructions: 110000003 cycles: 63156753 heartbeat IPC: 2.00248 cumulative IPC: 1.70001 (Simulation time: 4 hr 15 min 16 sec) 
Finished CPU 0 instructions: 100000000 cycles: 58823276 cummulative IPC: 1.70001 (Simulation time: 4 hr 15 min 16 sec) 

ChampSim completed all CPUs

Region of Interest Statistics

CPU 0 cummulative IPC: 1.70001 instructions: 100000000 cycles: 58823276
LLC TOTAL     ACCESS:    1161533  HIT:     847024  MISS:     314509
LLC LOAD      ACCESS:     133343  HIT:     100992  MISS:      32351
LLC RFO       ACCESS:      47547  HIT:      14986  MISS:      32561
LLC PREFETCH  ACCESS:     680813  HIT:     484696  MISS:     196117
LLC WRITEBACK ACCESS:     299830  HIT:     246350  MISS:      53480
