
*** ChampSim Multicore Out-of-Order Simulator ***

Warmup Instructions: 10000000
Simulation Instructions: 100000000
Configuration: 2
Number of CPUs: 1
LLC sets: 2048
LLC ways: 16
Off-chip DRAM Channels: 1 Width: 64-bit Data Rate: 1600 MT/s

CPU 0 runs /datasets/cs240c-wi22-a00-public/data/Assignment2-gz/calculix_2655B.trace.gz
CPU 0 L1D next line prefetcher
CPU 0 L2C IP-based stride prefetcher
config 2, num_core 1, llc_sets 2048
Heartbeat CPU 0 instructions: 1000003 cycles: 392363 heartbeat IPC: 2.54867 cumulative IPC: 2.54867 (Simulation time: 0 hr 2 min 10 sec) 
Heartbeat CPU 0 instructions: 2000001 cycles: 785087 heartbeat IPC: 2.54631 cumulative IPC: 2.54749 (Simulation time: 0 hr 3 min 49 sec) 
Heartbeat CPU 0 instructions: 3000002 cycles: 1177606 heartbeat IPC: 2.54765 cumulative IPC: 2.54754 (Simulation time: 0 hr 5 min 16 sec) 
Heartbeat CPU 0 instructions: 4000000 cycles: 1569370 heartbeat IPC: 2.55255 cumulative IPC: 2.54879 (Simulation time: 0 hr 7 min 3 sec) 
Heartbeat CPU 0 instructions: 5000003 cycles: 1961544 heartbeat IPC: 2.5499 cumulative IPC: 2.54901 (Simulation time: 0 hr 8 min 44 sec) 
Heartbeat CPU 0 instructions: 6000003 cycles: 2353688 heartbeat IPC: 2.55008 cumulative IPC: 2.54919 (Simulation time: 0 hr 10 min 23 sec) 
Heartbeat CPU 0 instructions: 7000002 cycles: 2745885 heartbeat IPC: 2.54974 cumulative IPC: 2.54927 (Simulation time: 0 hr 12 min 0 sec) 
Heartbeat CPU 0 instructions: 8000000 cycles: 3137870 heartbeat IPC: 2.55111 cumulative IPC: 2.5495 (Simulation time: 0 hr 13 min 56 sec) 
Heartbeat CPU 0 instructions: 9000001 cycles: 3530060 heartbeat IPC: 2.54979 cumulative IPC: 2.54953 (Simulation time: 0 hr 15 min 42 sec) 
Heartbeat CPU 0 instructions: 10000000 cycles: 3921541 heartbeat IPC: 2.5544 cumulative IPC: 2.55002 (Simulation time: 0 hr 17 min 42 sec) 

Warmup complete CPU 0 instructions: 10000004 cycles: 3921542 (Simulation time: 0 hr 17 min 42 sec) 

Heartbeat CPU 0 instructions: 11000001 cycles: 4630484 heartbeat IPC: 1.41055 cumulative IPC: 1.41055 (Simulation time: 0 hr 20 min 0 sec) 
Heartbeat CPU 0 instructions: 12000000 cycles: 5335280 heartbeat IPC: 1.41885 cumulative IPC: 1.41469 (Simulation time: 0 hr 22 min 6 sec) 
Heartbeat CPU 0 instructions: 13000000 cycles: 6039364 heartbeat IPC: 1.42029 cumulative IPC: 1.41655 (Simulation time: 0 hr 24 min 20 sec) 
Heartbeat CPU 0 instructions: 14000003 cycles: 6734630 heartbeat IPC: 1.4383 cumulative IPC: 1.42192 (Simulation time: 0 hr 26 min 21 sec) 
Heartbeat CPU 0 instructions: 15000001 cycles: 7418541 heartbeat IPC: 1.46218 cumulative IPC: 1.4298 (Simulation time: 0 hr 28 min 10 sec) 
Heartbeat CPU 0 instructions: 16000000 cycles: 8146107 heartbeat IPC: 1.37444 cumulative IPC: 1.42026 (Simulation time: 0 hr 30 min 9 sec) 
Heartbeat CPU 0 instructions: 17000000 cycles: 8832679 heartbeat IPC: 1.45651 cumulative IPC: 1.42533 (Simulation time: 0 hr 32 min 4 sec) 
Heartbeat CPU 0 instructions: 18000000 cycles: 9502071 heartbeat IPC: 1.49389 cumulative IPC: 1.43356 (Simulation time: 0 hr 33 min 55 sec) 
Heartbeat CPU 0 instructions: 19000000 cycles: 10170903 heartbeat IPC: 1.49514 cumulative IPC: 1.44015 (Simulation time: 0 hr 36 min 0 sec) 
Heartbeat CPU 0 instructions: 20000000 cycles: 10850592 heartbeat IPC: 1.47126 cumulative IPC: 1.4432 (Simulation time: 0 hr 38 min 0 sec) 
Heartbeat CPU 0 instructions: 21000000 cycles: 11525830 heartbeat IPC: 1.48096 cumulative IPC: 1.44655 (Simulation time: 0 hr 39 min 56 sec) 
Heartbeat CPU 0 instructions: 22000001 cycles: 12250525 heartbeat IPC: 1.37989 cumulative IPC: 1.44075 (Simulation time: 0 hr 41 min 55 sec) 
Heartbeat CPU 0 instructions: 23000000 cycles: 12946469 heartbeat IPC: 1.4369 cumulative IPC: 1.44045 (Simulation time: 0 hr 44 min 1 sec) 
Heartbeat CPU 0 instructions: 24000000 cycles: 13626258 heartbeat IPC: 1.47104 cumulative IPC: 1.4426 (Simulation time: 0 hr 45 min 57 sec) 
Heartbeat CPU 0 instructions: 25000003 cycles: 14311762 heartbeat IPC: 1.45879 cumulative IPC: 1.44367 (Simulation time: 0 hr 48 min 12 sec) 
Heartbeat CPU 0 instructions: 26000001 cycles: 14984184 heartbeat IPC: 1.48716 cumulative IPC: 1.44631 (Simulation time: 0 hr 50 min 33 sec) 
Heartbeat CPU 0 instructions: 27000000 cycles: 15679566 heartbeat IPC: 1.43806 cumulative IPC: 1.44582 (Simulation time: 0 hr 52 min 56 sec) 
Heartbeat CPU 0 instructions: 28000000 cycles: 16380409 heartbeat IPC: 1.42685 cumulative IPC: 1.44475 (Simulation time: 0 hr 55 min 40 sec) 
Heartbeat CPU 0 instructions: 29000003 cycles: 17056067 heartbeat IPC: 1.48004 cumulative IPC: 1.44657 (Simulation time: 0 hr 58 min 32 sec) 
Heartbeat CPU 0 instructions: 30000001 cycles: 17739672 heartbeat IPC: 1.46283 cumulative IPC: 1.44737 (Simulation time: 1 hr 1 min 26 sec) 
Heartbeat CPU 0 instructions: 31000002 cycles: 18417645 heartbeat IPC: 1.47499 cumulative IPC: 1.44867 (Simulation time: 1 hr 4 min 7 sec) 
Heartbeat CPU 0 instructions: 32000000 cycles: 19081074 heartbeat IPC: 1.50732 cumulative IPC: 1.45123 (Simulation time: 1 hr 6 min 21 sec) 
Heartbeat CPU 0 instructions: 33000003 cycles: 19778479 heartbeat IPC: 1.43389 cumulative IPC: 1.45047 (Simulation time: 1 hr 8 min 47 sec) 
Heartbeat CPU 0 instructions: 34000002 cycles: 20507488 heartbeat IPC: 1.37172 cumulative IPC: 1.44701 (Simulation time: 1 hr 11 min 24 sec) 
Heartbeat CPU 0 instructions: 35000001 cycles: 21221088 heartbeat IPC: 1.40134 cumulative IPC: 1.44512 (Simulation time: 1 hr 14 min 22 sec) 
Heartbeat CPU 0 instructions: 36000000 cycles: 21915605 heartbeat IPC: 1.43985 cumulative IPC: 1.44492 (Simulation time: 1 hr 16 min 58 sec) 
Heartbeat CPU 0 instructions: 37000002 cycles: 22618858 heartbeat IPC: 1.42197 cumulative IPC: 1.44406 (Simulation time: 1 hr 19 min 50 sec) 
Heartbeat CPU 0 instructions: 38000002 cycles: 23301757 heartbeat IPC: 1.46435 cumulative IPC: 1.44477 (Simulation time: 1 hr 22 min 32 sec) 
Heartbeat CPU 0 instructions: 39000002 cycles: 24063610 heartbeat IPC: 1.31259 cumulative IPC: 1.43977 (Simulation time: 1 hr 25 min 20 sec) 
Heartbeat CPU 0 instructions: 40000000 cycles: 24573358 heartbeat IPC: 1.96175 cumulative IPC: 1.45266 (Simulation time: 1 hr 28 min 0 sec) 
Heartbeat CPU 0 instructions: 41000003 cycles: 25063091 heartbeat IPC: 2.04194 cumulative IPC: 1.46631 (Simulation time: 1 hr 30 min 37 sec) 
Heartbeat CPU 0 instructions: 42000001 cycles: 25593217 heartbeat IPC: 1.88634 cumulative IPC: 1.47658 (Simulation time: 1 hr 33 min 22 sec) 
Heartbeat CPU 0 instructions: 43000001 cycles: 26123365 heartbeat IPC: 1.88627 cumulative IPC: 1.48636 (Simulation time: 1 hr 36 min 1 sec) 
Heartbeat CPU 0 instructions: 44000000 cycles: 26842480 heartbeat IPC: 1.3906 cumulative IPC: 1.48336 (Simulation time: 1 hr 38 min 56 sec) 
Heartbeat CPU 0 instructions: 45000002 cycles: 27314734 heartbeat IPC: 2.11751 cumulative IPC: 1.49616 (Simulation time: 1 hr 41 min 48 sec) 
Heartbeat CPU 0 instructions: 46000003 cycles: 27836018 heartbeat IPC: 1.91834 cumulative IPC: 1.50536 (Simulation time: 1 hr 44 min 38 sec) 
Heartbeat CPU 0 instructions: 47000000 cycles: 28366505 heartbeat IPC: 1.88505 cumulative IPC: 1.5136 (Simulation time: 1 hr 47 min 38 sec) 
Heartbeat CPU 0 instructions: 48000000 cycles: 28925042 heartbeat IPC: 1.79039 cumulative IPC: 1.51979 (Simulation time: 1 hr 50 min 24 sec) 
Heartbeat CPU 0 instructions: 49000000 cycles: 29373084 heartbeat IPC: 2.23193 cumulative IPC: 1.53232 (Simulation time: 1 hr 52 min 56 sec) 
Heartbeat CPU 0 instructions: 50000002 cycles: 29857958 heartbeat IPC: 2.0624 cumulative IPC: 1.54223 (Simulation time: 1 hr 55 min 32 sec) 
Heartbeat CPU 0 instructions: 51000001 cycles: 30336378 heartbeat IPC: 2.09021 cumulative IPC: 1.55216 (Simulation time: 1 hr 58 min 4 sec) 
Heartbeat CPU 0 instructions: 52000000 cycles: 30772241 heartbeat IPC: 2.2943 cumulative IPC: 1.5642 (Simulation time: 2 hr 0 min 50 sec) 
Heartbeat CPU 0 instructions: 53000002 cycles: 31302634 heartbeat IPC: 1.8854 cumulative IPC: 1.57043 (Simulation time: 2 hr 3 min 43 sec) 
Heartbeat CPU 0 instructions: 54000002 cycles: 32098398 heartbeat IPC: 1.25665 cumulative IPC: 1.56157 (Simulation time: 2 hr 6 min 49 sec) 
Heartbeat CPU 0 instructions: 55000002 cycles: 32657812 heartbeat IPC: 1.78758 cumulative IPC: 1.56597 (Simulation time: 2 hr 9 min 29 sec) 
Heartbeat CPU 0 instructions: 56000000 cycles: 33161309 heartbeat IPC: 1.98611 cumulative IPC: 1.5732 (Simulation time: 2 hr 12 min 41 sec) 
Heartbeat CPU 0 instructions: 57000000 cycles: 33712624 heartbeat IPC: 1.81385 cumulative IPC: 1.57765 (Simulation time: 2 hr 15 min 24 sec) 
Heartbeat CPU 0 instructions: 58000003 cycles: 34172696 heartbeat IPC: 2.17358 cumulative IPC: 1.58672 (Simulation time: 2 hr 18 min 23 sec) 
Heartbeat CPU 0 instructions: 59000001 cycles: 34717933 heartbeat IPC: 1.83406 cumulative IPC: 1.5911 (Simulation time: 2 hr 21 min 20 sec) 
Heartbeat CPU 0 instructions: 60000000 cycles: 35219702 heartbeat IPC: 1.99295 cumulative IPC: 1.59754 (Simulation time: 2 hr 24 min 9 sec) 
Heartbeat CPU 0 instructions: 61000002 cycles: 35752601 heartbeat IPC: 1.87653 cumulative IPC: 1.60221 (Simulation time: 2 hr 27 min 0 sec) 
Heartbeat CPU 0 instructions: 62000003 cycles: 36277691 heartbeat IPC: 1.90444 cumulative IPC: 1.60711 (Simulation time: 2 hr 29 min 56 sec) 
Heartbeat CPU 0 instructions: 63000003 cycles: 36961462 heartbeat IPC: 1.46248 cumulative IPC: 1.60412 (Simulation time: 2 hr 33 min 6 sec) 
Heartbeat CPU 0 instructions: 64000000 cycles: 37454025 heartbeat IPC: 2.03019 cumulative IPC: 1.61038 (Simulation time: 2 hr 36 min 7 sec) 
Heartbeat CPU 0 instructions: 65000001 cycles: 37983237 heartbeat IPC: 1.8896 cumulative IPC: 1.61472 (Simulation time: 2 hr 39 min 2 sec) 
Heartbeat CPU 0 instructions: 66000001 cycles: 38646293 heartbeat IPC: 1.50817 cumulative IPC: 1.61268 (Simulation time: 2 hr 41 min 54 sec) 
Heartbeat CPU 0 instructions: 67000001 cycles: 39291472 heartbeat IPC: 1.54996 cumulative IPC: 1.61154 (Simulation time: 2 hr 44 min 45 sec) 
Heartbeat CPU 0 instructions: 68000000 cycles: 39931513 heartbeat IPC: 1.5624 cumulative IPC: 1.61066 (Simulation time: 2 hr 47 min 26 sec) 
Heartbeat CPU 0 instructions: 69000001 cycles: 40564666 heartbeat IPC: 1.5794 cumulative IPC: 1.61012 (Simulation time: 2 hr 50 min 6 sec) 
Heartbeat CPU 0 instructions: 70000002 cycles: 41212200 heartbeat IPC: 1.54432 cumulative IPC: 1.60898 (Simulation time: 2 hr 52 min 58 sec) 
Heartbeat CPU 0 instructions: 71000003 cycles: 41845439 heartbeat IPC: 1.57918 cumulative IPC: 1.60848 (Simulation time: 2 hr 56 min 10 sec) 
Heartbeat CPU 0 instructions: 72000000 cycles: 42484926 heartbeat IPC: 1.56375 cumulative IPC: 1.60774 (Simulation time: 2 hr 59 min 11 sec) 
Heartbeat CPU 0 instructions: 73000000 cycles: 43120324 heartbeat IPC: 1.57382 cumulative IPC: 1.60719 (Simulation time: 3 hr 2 min 15 sec) 
Heartbeat CPU 0 instructions: 74000000 cycles: 43746674 heartbeat IPC: 1.59655 cumulative IPC: 1.60703 (Simulation time: 3 hr 5 min 0 sec) 
Heartbeat CPU 0 instructions: 75000000 cycles: 44413280 heartbeat IPC: 1.50014 cumulative IPC: 1.60527 (Simulation time: 3 hr 8 min 11 sec) 
Heartbeat CPU 0 instructions: 76000000 cycles: 45067808 heartbeat IPC: 1.52782 cumulative IPC: 1.60403 (Simulation time: 3 hr 11 min 17 sec) 
Heartbeat CPU 0 instructions: 77000003 cycles: 45715196 heartbeat IPC: 1.54467 cumulative IPC: 1.60311 (Simulation time: 3 hr 14 min 24 sec) 
Heartbeat CPU 0 instructions: 78000002 cycles: 46355743 heartbeat IPC: 1.56116 cumulative IPC: 1.60248 (Simulation time: 3 hr 17 min 25 sec) 
Heartbeat CPU 0 instructions: 79000001 cycles: 46989075 heartbeat IPC: 1.57895 cumulative IPC: 1.60213 (Simulation time: 3 hr 20 min 45 sec) 
Heartbeat CPU 0 instructions: 80000000 cycles: 47626202 heartbeat IPC: 1.56954 cumulative IPC: 1.60166 (Simulation time: 3 hr 23 min 48 sec) 
Heartbeat CPU 0 instructions: 81000001 cycles: 48251900 heartbeat IPC: 1.59822 cumulative IPC: 1.60161 (Simulation time: 3 hr 26 min 41 sec) 
Heartbeat CPU 0 instructions: 82000001 cycles: 48868542 heartbeat IPC: 1.62169 cumulative IPC: 1.60189 (Simulation time: 3 hr 29 min 24 sec) 
Heartbeat CPU 0 instructions: 83000003 cycles: 49485134 heartbeat IPC: 1.62182 cumulative IPC: 1.60216 (Simulation time: 3 hr 32 min 23 sec) 
Heartbeat CPU 0 instructions: 84000000 cycles: 50131710 heartbeat IPC: 1.5466 cumulative IPC: 1.60138 (Simulation time: 3 hr 35 min 15 sec) 
Heartbeat CPU 0 instructions: 85000002 cycles: 50690734 heartbeat IPC: 1.78884 cumulative IPC: 1.60362 (Simulation time: 3 hr 38 min 1 sec) 
Heartbeat CPU 0 instructions: 86000001 cycles: 51411308 heartbeat IPC: 1.38778 cumulative IPC: 1.60034 (Simulation time: 3 hr 40 min 58 sec) 
Heartbeat CPU 0 instructions: 87000001 cycles: 52005093 heartbeat IPC: 1.68411 cumulative IPC: 1.60138 (Simulation time: 3 hr 43 min 34 sec) 
Heartbeat CPU 0 instructions: 88000000 cycles: 52487943 heartbeat IPC: 2.07103 cumulative IPC: 1.60605 (Simulation time: 3 hr 46 min 8 sec) 
Heartbeat CPU 0 instructions: 89000000 cycles: 52963884 heartbeat IPC: 2.1011 cumulative IPC: 1.61085 (Simulation time: 3 hr 48 min 36 sec) 
Heartbeat CPU 0 instructions: 90000001 cycles: 53444674 heartbeat IPC: 2.07991 cumulative IPC: 1.61541 (Simulation time: 3 hr 51 min 19 sec) 
Heartbeat CPU 0 instructions: 91000002 cycles: 54004191 heartbeat IPC: 1.78726 cumulative IPC: 1.61733 (Simulation time: 3 hr 53 min 45 sec) 
Heartbeat CPU 0 instructions: 92000000 cycles: 54564275 heartbeat IPC: 1.78544 cumulative IPC: 1.61919 (Simulation time: 3 hr 56 min 23 sec) 
Heartbeat CPU 0 instructions: 93000000 cycles: 55122409 heartbeat IPC: 1.79168 cumulative IPC: 1.62107 (Simulation time: 3 hr 58 min 56 sec) 
Heartbeat CPU 0 instructions: 94000003 cycles: 55660267 heartbeat IPC: 1.85923 cumulative IPC: 1.62354 (Simulation time: 4 hr 1 min 35 sec) 
Heartbeat CPU 0 instructions: 95000003 cycles: 56220116 heartbeat IPC: 1.7862 cumulative IPC: 1.62528 (Simulation time: 4 hr 4 min 11 sec) 
Heartbeat CPU 0 instructions: 96000000 cycles: 56712507 heartbeat IPC: 2.0309 cumulative IPC: 1.62907 (Simulation time: 4 hr 6 min 31 sec) 
Heartbeat CPU 0 instructions: 97000002 cycles: 57222838 heartbeat IPC: 1.95952 cumulative IPC: 1.63223 (Simulation time: 4 hr 8 min 54 sec) 
Heartbeat CPU 0 instructions: 98000000 cycles: 57707930 heartbeat IPC: 2.06146 cumulative IPC: 1.6361 (Simulation time: 4 hr 11 min 14 sec) 
Heartbeat CPU 0 instructions: 99000001 cycles: 58264219 heartbeat IPC: 1.79763 cumulative IPC: 1.63776 (Simulation time: 4 hr 13 min 35 sec) 
Heartbeat CPU 0 instructions: 100000000 cycles: 58770639 heartbeat IPC: 1.97464 cumulative IPC: 1.64087 (Simulation time: 4 hr 15 min 53 sec) 
Heartbeat CPU 0 instructions: 101000001 cycles: 59272030 heartbeat IPC: 1.99445 cumulative IPC: 1.64407 (Simulation time: 4 hr 18 min 6 sec) 
Heartbeat CPU 0 instructions: 102000003 cycles: 59755701 heartbeat IPC: 2.06753 cumulative IPC: 1.64774 (Simulation time: 4 hr 20 min 16 sec) 
Heartbeat CPU 0 instructions: 103000003 cycles: 60299730 heartbeat IPC: 1.83814 cumulative IPC: 1.64957 (Simulation time: 4 hr 22 min 30 sec) 
Heartbeat CPU 0 instructions: 104000000 cycles: 60854972 heartbeat IPC: 1.80101 cumulative IPC: 1.65105 (Simulation time: 4 hr 24 min 39 sec) 
Heartbeat CPU 0 instructions: 105000001 cycles: 61282110 heartbeat IPC: 2.34117 cumulative IPC: 1.65619 (Simulation time: 4 hr 26 min 42 sec) 
Heartbeat CPU 0 instructions: 106000002 cycles: 61728045 heartbeat IPC: 2.24248 cumulative IPC: 1.66071 (Simulation time: 4 hr 28 min 29 sec) 
Heartbeat CPU 0 instructions: 107000001 cycles: 62179558 heartbeat IPC: 2.21477 cumulative IPC: 1.66501 (Simulation time: 4 hr 30 min 19 sec) 
Heartbeat CPU 0 instructions: 108000000 cycles: 62598375 heartbeat IPC: 2.38768 cumulative IPC: 1.67017 (Simulation time: 4 hr 32 min 11 sec) 
Heartbeat CPU 0 instructions: 109000000 cycles: 63071975 heartbeat IPC: 2.11149 cumulative IPC: 1.6737 (Simulation time: 4 hr 34 min 2 sec) 
Heartbeat CPU 0 instructions: 110000000 cycles: 63490686 heartbeat IPC: 2.38828 cumulative IPC: 1.67872 (Simulation time: 4 hr 35 min 37 sec) 
Finished CPU 0 instructions: 100000000 cycles: 59569145 cummulative IPC: 1.67872 (Simulation time: 4 hr 35 min 37 sec) 

ChampSim completed all CPUs

Region of Interest Statistics

CPU 0 cummulative IPC: 1.67872 instructions: 100000000 cycles: 59569145
LLC TOTAL     ACCESS:     865113  HIT:     178682  MISS:     686431
LLC LOAD      ACCESS:     110575  HIT:      31713  MISS:      78862
LLC RFO       ACCESS:        417  HIT:        395  MISS:         22
LLC PREFETCH  ACCESS:     655810  HIT:      71889  MISS:     583921
LLC WRITEBACK ACCESS:      98311  HIT:      74685  MISS:      23626
