
*** ChampSim Multicore Out-of-Order Simulator ***

Warmup Instructions: 10000000
Simulation Instructions: 100000000
Configuration: 2
Number of CPUs: 1
LLC sets: 2048
LLC ways: 16
Off-chip DRAM Channels: 1 Width: 64-bit Data Rate: 1600 MT/s

CPU 0 runs /datasets/cs240c-wi22-a00-public/data/Assignment2-gz/libquantum_1735B.trace.gz
CPU 0 L1D next line prefetcher
CPU 0 L2C IP-based stride prefetcher
config 2, num_core 1, llc_sets 2048
Heartbeat CPU 0 instructions: 1000001 cycles: 333341 heartbeat IPC: 2.99993 cumulative IPC: 2.99993 (Simulation time: 0 hr 1 min 46 sec) 
Heartbeat CPU 0 instructions: 2000000 cycles: 666674 heartbeat IPC: 3 cumulative IPC: 2.99997 (Simulation time: 0 hr 3 min 15 sec) 
Heartbeat CPU 0 instructions: 3000000 cycles: 989045 heartbeat IPC: 3.10202 cumulative IPC: 3.03323 (Simulation time: 0 hr 4 min 52 sec) 
Heartbeat CPU 0 instructions: 4000000 cycles: 1290770 heartbeat IPC: 3.31428 cumulative IPC: 3.09893 (Simulation time: 0 hr 6 min 26 sec) 
Heartbeat CPU 0 instructions: 5000001 cycles: 1592495 heartbeat IPC: 3.31428 cumulative IPC: 3.13973 (Simulation time: 0 hr 8 min 12 sec) 
Heartbeat CPU 0 instructions: 6000001 cycles: 1894219 heartbeat IPC: 3.31429 cumulative IPC: 3.16753 (Simulation time: 0 hr 9 min 54 sec) 
Heartbeat CPU 0 instructions: 7000002 cycles: 2195942 heartbeat IPC: 3.3143 cumulative IPC: 3.1877 (Simulation time: 0 hr 11 min 44 sec) 
Heartbeat CPU 0 instructions: 8000000 cycles: 2501897 heartbeat IPC: 3.26845 cumulative IPC: 3.19757 (Simulation time: 0 hr 13 min 20 sec) 
Heartbeat CPU 0 instructions: 9000000 cycles: 2835230 heartbeat IPC: 3 cumulative IPC: 3.17435 (Simulation time: 0 hr 14 min 48 sec) 
Heartbeat CPU 0 instructions: 10000002 cycles: 3168564 heartbeat IPC: 3 cumulative IPC: 3.156 (Simulation time: 0 hr 16 min 11 sec) 

Warmup complete CPU 0 instructions: 10000002 cycles: 3168564 (Simulation time: 0 hr 16 min 11 sec) 

Heartbeat CPU 0 instructions: 11000001 cycles: 4593870 heartbeat IPC: 0.701603 cumulative IPC: 0.701603 (Simulation time: 0 hr 18 min 46 sec) 
Heartbeat CPU 0 instructions: 12000000 cycles: 6018722 heartbeat IPC: 0.701827 cumulative IPC: 0.701715 (Simulation time: 0 hr 21 min 1 sec) 
Heartbeat CPU 0 instructions: 13000001 cycles: 7839966 heartbeat IPC: 0.549076 cumulative IPC: 0.642205 (Simulation time: 0 hr 23 min 6 sec) 
Heartbeat CPU 0 instructions: 14000000 cycles: 10329688 heartbeat IPC: 0.401651 cumulative IPC: 0.558571 (Simulation time: 0 hr 25 min 1 sec) 
Heartbeat CPU 0 instructions: 15000000 cycles: 12812259 heartbeat IPC: 0.402808 cumulative IPC: 0.518473 (Simulation time: 0 hr 26 min 59 sec) 
Heartbeat CPU 0 instructions: 16000000 cycles: 15281018 heartbeat IPC: 0.405062 cumulative IPC: 0.495358 (Simulation time: 0 hr 29 min 9 sec) 
Heartbeat CPU 0 instructions: 17000002 cycles: 17765708 heartbeat IPC: 0.402465 cumulative IPC: 0.479546 (Simulation time: 0 hr 31 min 20 sec) 
Heartbeat CPU 0 instructions: 18000001 cycles: 19933792 heartbeat IPC: 0.461236 cumulative IPC: 0.477178 (Simulation time: 0 hr 33 min 30 sec) 
Heartbeat CPU 0 instructions: 19000000 cycles: 21433373 heartbeat IPC: 0.666852 cumulative IPC: 0.492751 (Simulation time: 0 hr 36 min 0 sec) 
Heartbeat CPU 0 instructions: 20000000 cycles: 22822472 heartbeat IPC: 0.719891 cumulative IPC: 0.508805 (Simulation time: 0 hr 37 min 56 sec) 
Heartbeat CPU 0 instructions: 21000001 cycles: 24322102 heartbeat IPC: 0.666832 cumulative IPC: 0.520008 (Simulation time: 0 hr 39 min 54 sec) 
Heartbeat CPU 0 instructions: 22000000 cycles: 25821608 heartbeat IPC: 0.666886 cumulative IPC: 0.52973 (Simulation time: 0 hr 42 min 4 sec) 
Heartbeat CPU 0 instructions: 23000000 cycles: 28026699 heartbeat IPC: 0.453496 cumulative IPC: 0.522968 (Simulation time: 0 hr 44 min 1 sec) 
Heartbeat CPU 0 instructions: 24000000 cycles: 30688451 heartbeat IPC: 0.375692 cumulative IPC: 0.508723 (Simulation time: 0 hr 45 min 43 sec) 
Heartbeat CPU 0 instructions: 25000000 cycles: 33357323 heartbeat IPC: 0.37469 cumulative IPC: 0.496874 (Simulation time: 0 hr 47 min 30 sec) 
Heartbeat CPU 0 instructions: 26000000 cycles: 36006075 heartbeat IPC: 0.377536 cumulative IPC: 0.487248 (Simulation time: 0 hr 49 min 35 sec) 
Heartbeat CPU 0 instructions: 27000001 cycles: 38672398 heartbeat IPC: 0.375049 cumulative IPC: 0.478821 (Simulation time: 0 hr 51 min 23 sec) 
Heartbeat CPU 0 instructions: 28000000 cycles: 40641220 heartbeat IPC: 0.507917 cumulative IPC: 0.48035 (Simulation time: 0 hr 53 min 30 sec) 
Heartbeat CPU 0 instructions: 29000000 cycles: 42063162 heartbeat IPC: 0.703264 cumulative IPC: 0.4885 (Simulation time: 0 hr 55 min 43 sec) 
Heartbeat CPU 0 instructions: 30000001 cycles: 43484983 heartbeat IPC: 0.703324 cumulative IPC: 0.496076 (Simulation time: 0 hr 57 min 56 sec) 
Heartbeat CPU 0 instructions: 31000000 cycles: 44906878 heartbeat IPC: 0.703286 cumulative IPC: 0.503135 (Simulation time: 0 hr 59 min 51 sec) 
Heartbeat CPU 0 instructions: 32000000 cycles: 46328694 heartbeat IPC: 0.703326 cumulative IPC: 0.50973 (Simulation time: 1 hr 1 min 46 sec) 
Heartbeat CPU 0 instructions: 33000002 cycles: 48371328 heartbeat IPC: 0.489565 cumulative IPC: 0.508818 (Simulation time: 1 hr 3 min 21 sec) 
Heartbeat CPU 0 instructions: 34000000 cycles: 50549553 heartbeat IPC: 0.459088 cumulative IPC: 0.506532 (Simulation time: 1 hr 5 min 4 sec) 
Heartbeat CPU 0 instructions: 35000000 cycles: 52710626 heartbeat IPC: 0.462733 cumulative IPC: 0.504622 (Simulation time: 1 hr 6 min 52 sec) 
Heartbeat CPU 0 instructions: 36000000 cycles: 54876662 heartbeat IPC: 0.461673 cumulative IPC: 0.502823 (Simulation time: 1 hr 8 min 41 sec) 
Heartbeat CPU 0 instructions: 37000002 cycles: 57051206 heartbeat IPC: 0.459867 cumulative IPC: 0.501089 (Simulation time: 1 hr 10 min 29 sec) 
Heartbeat CPU 0 instructions: 38000003 cycles: 58759874 heartbeat IPC: 0.585252 cumulative IPC: 0.503676 (Simulation time: 1 hr 12 min 37 sec) 
Heartbeat CPU 0 instructions: 39000000 cycles: 60171280 heartbeat IPC: 0.708511 cumulative IPC: 0.508748 (Simulation time: 1 hr 14 min 41 sec) 
Heartbeat CPU 0 instructions: 40000000 cycles: 61485596 heartbeat IPC: 0.760852 cumulative IPC: 0.514429 (Simulation time: 1 hr 16 min 33 sec) 
Heartbeat CPU 0 instructions: 41000000 cycles: 62897122 heartbeat IPC: 0.708453 cumulative IPC: 0.519015 (Simulation time: 1 hr 18 min 53 sec) 
Heartbeat CPU 0 instructions: 42000001 cycles: 64308527 heartbeat IPC: 0.708515 cumulative IPC: 0.523389 (Simulation time: 1 hr 20 min 49 sec) 
Heartbeat CPU 0 instructions: 43000000 cycles: 66378262 heartbeat IPC: 0.483153 cumulative IPC: 0.522072 (Simulation time: 1 hr 22 min 40 sec) 
Heartbeat CPU 0 instructions: 44000000 cycles: 68546723 heartbeat IPC: 0.461157 cumulative IPC: 0.520051 (Simulation time: 1 hr 24 min 33 sec) 
Heartbeat CPU 0 instructions: 45000001 cycles: 70710468 heartbeat IPC: 0.462162 cumulative IPC: 0.518197 (Simulation time: 1 hr 26 min 24 sec) 
Heartbeat CPU 0 instructions: 46000002 cycles: 72862597 heartbeat IPC: 0.464657 cumulative IPC: 0.516544 (Simulation time: 1 hr 28 min 12 sec) 
Heartbeat CPU 0 instructions: 47000000 cycles: 75030116 heartbeat IPC: 0.461356 cumulative IPC: 0.514879 (Simulation time: 1 hr 29 min 50 sec) 
Heartbeat CPU 0 instructions: 48000000 cycles: 76767905 heartbeat IPC: 0.575444 cumulative IPC: 0.516309 (Simulation time: 1 hr 31 min 52 sec) 
Heartbeat CPU 0 instructions: 49000002 cycles: 78287497 heartbeat IPC: 0.658073 cumulative IPC: 0.519177 (Simulation time: 1 hr 33 min 44 sec) 
Heartbeat CPU 0 instructions: 50000001 cycles: 79806965 heartbeat IPC: 0.658124 cumulative IPC: 0.521932 (Simulation time: 1 hr 36 min 1 sec) 
Heartbeat CPU 0 instructions: 51000000 cycles: 81326536 heartbeat IPC: 0.65808 cumulative IPC: 0.524579 (Simulation time: 1 hr 38 min 9 sec) 
Heartbeat CPU 0 instructions: 52000000 cycles: 82846210 heartbeat IPC: 0.658036 cumulative IPC: 0.527124 (Simulation time: 1 hr 40 min 41 sec) 
Heartbeat CPU 0 instructions: 53000002 cycles: 84365914 heartbeat IPC: 0.658024 cumulative IPC: 0.529574 (Simulation time: 1 hr 43 min 4 sec) 
Heartbeat CPU 0 instructions: 54000001 cycles: 85885054 heartbeat IPC: 0.658267 cumulative IPC: 0.531937 (Simulation time: 1 hr 45 min 26 sec) 
Heartbeat CPU 0 instructions: 55000000 cycles: 87404706 heartbeat IPC: 0.658045 cumulative IPC: 0.534212 (Simulation time: 1 hr 47 min 35 sec) 
Heartbeat CPU 0 instructions: 56000000 cycles: 88924175 heartbeat IPC: 0.658125 cumulative IPC: 0.536408 (Simulation time: 1 hr 49 min 34 sec) 
Heartbeat CPU 0 instructions: 57000000 cycles: 90443768 heartbeat IPC: 0.658071 cumulative IPC: 0.538526 (Simulation time: 1 hr 51 min 46 sec) 
Heartbeat CPU 0 instructions: 58000002 cycles: 91963239 heartbeat IPC: 0.658125 cumulative IPC: 0.540573 (Simulation time: 1 hr 53 min 40 sec) 
Heartbeat CPU 0 instructions: 59000001 cycles: 93377087 heartbeat IPC: 0.707289 cumulative IPC: 0.543186 (Simulation time: 1 hr 55 min 53 sec) 
Heartbeat CPU 0 instructions: 60000000 cycles: 94899226 heartbeat IPC: 0.65697 cumulative IPC: 0.545074 (Simulation time: 1 hr 58 min 4 sec) 
Heartbeat CPU 0 instructions: 61000003 cycles: 96418846 heartbeat IPC: 0.658061 cumulative IPC: 0.546915 (Simulation time: 2 hr 0 min 24 sec) 
Heartbeat CPU 0 instructions: 62000002 cycles: 97938318 heartbeat IPC: 0.658123 cumulative IPC: 0.548698 (Simulation time: 2 hr 2 min 39 sec) 
Heartbeat CPU 0 instructions: 63000001 cycles: 99457862 heartbeat IPC: 0.658091 cumulative IPC: 0.550425 (Simulation time: 2 hr 4 min 47 sec) 
Heartbeat CPU 0 instructions: 64000000 cycles: 100977326 heartbeat IPC: 0.658126 cumulative IPC: 0.552098 (Simulation time: 2 hr 7 min 2 sec) 
Heartbeat CPU 0 instructions: 65000001 cycles: 102496814 heartbeat IPC: 0.658117 cumulative IPC: 0.55372 (Simulation time: 2 hr 9 min 3 sec) 
Heartbeat CPU 0 instructions: 66000000 cycles: 104014471 heartbeat IPC: 0.65891 cumulative IPC: 0.555303 (Simulation time: 2 hr 10 min 59 sec) 
Heartbeat CPU 0 instructions: 67000001 cycles: 105506291 heartbeat IPC: 0.670323 cumulative IPC: 0.556979 (Simulation time: 2 hr 13 min 15 sec) 
Heartbeat CPU 0 instructions: 68000000 cycles: 106998414 heartbeat IPC: 0.670185 cumulative IPC: 0.558606 (Simulation time: 2 hr 15 min 53 sec) 
Heartbeat CPU 0 instructions: 69000002 cycles: 108490561 heartbeat IPC: 0.670177 cumulative IPC: 0.560187 (Simulation time: 2 hr 18 min 35 sec) 
Heartbeat CPU 0 instructions: 70000001 cycles: 109982782 heartbeat IPC: 0.670141 cumulative IPC: 0.561723 (Simulation time: 2 hr 21 min 40 sec) 
Heartbeat CPU 0 instructions: 71000003 cycles: 111534635 heartbeat IPC: 0.644392 cumulative IPC: 0.562907 (Simulation time: 2 hr 24 min 27 sec) 
Heartbeat CPU 0 instructions: 72000000 cycles: 113698395 heartbeat IPC: 0.462157 cumulative IPC: 0.560935 (Simulation time: 2 hr 27 min 0 sec) 
Heartbeat CPU 0 instructions: 73000000 cycles: 115869153 heartbeat IPC: 0.460669 cumulative IPC: 0.559003 (Simulation time: 2 hr 29 min 44 sec) 
Heartbeat CPU 0 instructions: 74000000 cycles: 118023099 heartbeat IPC: 0.464264 cumulative IPC: 0.557227 (Simulation time: 2 hr 32 min 24 sec) 
Heartbeat CPU 0 instructions: 75000000 cycles: 120183490 heartbeat IPC: 0.462879 cumulative IPC: 0.555485 (Simulation time: 2 hr 35 min 9 sec) 
Heartbeat CPU 0 instructions: 76000000 cycles: 122353385 heartbeat IPC: 0.460852 cumulative IPC: 0.553762 (Simulation time: 2 hr 37 min 52 sec) 
Heartbeat CPU 0 instructions: 77000001 cycles: 123945584 heartbeat IPC: 0.628063 cumulative IPC: 0.554741 (Simulation time: 2 hr 40 min 58 sec) 
Heartbeat CPU 0 instructions: 78000000 cycles: 125450734 heartbeat IPC: 0.664385 cumulative IPC: 0.556091 (Simulation time: 2 hr 43 min 40 sec) 
Heartbeat CPU 0 instructions: 79000001 cycles: 126863961 heartbeat IPC: 0.707601 cumulative IPC: 0.557822 (Simulation time: 2 hr 46 min 33 sec) 
Heartbeat CPU 0 instructions: 80000000 cycles: 128369104 heartbeat IPC: 0.664388 cumulative IPC: 0.559103 (Simulation time: 2 hr 49 min 42 sec) 
Heartbeat CPU 0 instructions: 81000002 cycles: 129969954 heartbeat IPC: 0.624669 cumulative IPC: 0.559931 (Simulation time: 2 hr 52 min 22 sec) 
Heartbeat CPU 0 instructions: 82000003 cycles: 132121218 heartbeat IPC: 0.464843 cumulative IPC: 0.558344 (Simulation time: 2 hr 55 min 7 sec) 
Heartbeat CPU 0 instructions: 83000000 cycles: 134280814 heartbeat IPC: 0.463048 cumulative IPC: 0.556775 (Simulation time: 2 hr 57 min 38 sec) 
Heartbeat CPU 0 instructions: 84000000 cycles: 136441302 heartbeat IPC: 0.462858 cumulative IPC: 0.555252 (Simulation time: 2 hr 59 min 57 sec) 
Heartbeat CPU 0 instructions: 85000002 cycles: 138592552 heartbeat IPC: 0.464847 cumulative IPC: 0.553816 (Simulation time: 3 hr 2 min 35 sec) 
Heartbeat CPU 0 instructions: 86000002 cycles: 140761038 heartbeat IPC: 0.461151 cumulative IPC: 0.552356 (Simulation time: 3 hr 5 min 12 sec) 
Heartbeat CPU 0 instructions: 87000002 cycles: 142377475 heartbeat IPC: 0.618645 cumulative IPC: 0.553126 (Simulation time: 3 hr 8 min 5 sec) 
Heartbeat CPU 0 instructions: 88000000 cycles: 143950569 heartbeat IPC: 0.635689 cumulative IPC: 0.554048 (Simulation time: 3 hr 11 min 20 sec) 
Heartbeat CPU 0 instructions: 89000000 cycles: 145523737 heartbeat IPC: 0.63566 cumulative IPC: 0.55495 (Simulation time: 3 hr 14 min 20 sec) 
Heartbeat CPU 0 instructions: 90000000 cycles: 147436046 heartbeat IPC: 0.522928 cumulative IPC: 0.554525 (Simulation time: 3 hr 17 min 12 sec) 
Heartbeat CPU 0 instructions: 91000001 cycles: 150195723 heartbeat IPC: 0.362362 cumulative IPC: 0.550919 (Simulation time: 3 hr 19 min 52 sec) 
Heartbeat CPU 0 instructions: 92000000 cycles: 152926976 heartbeat IPC: 0.366132 cumulative IPC: 0.547549 (Simulation time: 3 hr 22 min 33 sec) 
Heartbeat CPU 0 instructions: 93000001 cycles: 155669528 heartbeat IPC: 0.364624 cumulative IPC: 0.544259 (Simulation time: 3 hr 25 min 26 sec) 
Heartbeat CPU 0 instructions: 94000001 cycles: 158216907 heartbeat IPC: 0.39256 cumulative IPC: 0.541767 (Simulation time: 3 hr 28 min 15 sec) 
Heartbeat CPU 0 instructions: 95000000 cycles: 159788841 heartbeat IPC: 0.636158 cumulative IPC: 0.542714 (Simulation time: 3 hr 31 min 25 sec) 
Heartbeat CPU 0 instructions: 96000000 cycles: 161269565 heartbeat IPC: 0.675345 cumulative IPC: 0.543956 (Simulation time: 3 hr 34 min 27 sec) 
Heartbeat CPU 0 instructions: 97000002 cycles: 162841613 heartbeat IPC: 0.636114 cumulative IPC: 0.544863 (Simulation time: 3 hr 37 min 17 sec) 
Heartbeat CPU 0 instructions: 98000001 cycles: 164972229 heartbeat IPC: 0.469347 cumulative IPC: 0.543869 (Simulation time: 3 hr 39 min 55 sec) 
Heartbeat CPU 0 instructions: 99000003 cycles: 167683103 heartbeat IPC: 0.368885 cumulative IPC: 0.540986 (Simulation time: 3 hr 42 min 24 sec) 
Heartbeat CPU 0 instructions: 100000000 cycles: 170393736 heartbeat IPC: 0.368916 cumulative IPC: 0.538197 (Simulation time: 3 hr 44 min 43 sec) 
Heartbeat CPU 0 instructions: 101000000 cycles: 173090322 heartbeat IPC: 0.370839 cumulative IPC: 0.535541 (Simulation time: 3 hr 46 min 48 sec) 
Heartbeat CPU 0 instructions: 102000000 cycles: 175337466 heartbeat IPC: 0.445009 cumulative IPC: 0.534359 (Simulation time: 3 hr 48 min 44 sec) 
Heartbeat CPU 0 instructions: 103000002 cycles: 176808331 heartbeat IPC: 0.679873 cumulative IPC: 0.535592 (Simulation time: 3 hr 50 min 50 sec) 
Heartbeat CPU 0 instructions: 104000000 cycles: 178279267 heartbeat IPC: 0.679838 cumulative IPC: 0.536803 (Simulation time: 3 hr 52 min 45 sec) 
Heartbeat CPU 0 instructions: 105000000 cycles: 179750148 heartbeat IPC: 0.679865 cumulative IPC: 0.537995 (Simulation time: 3 hr 54 min 55 sec) 
Heartbeat CPU 0 instructions: 106000003 cycles: 181221107 heartbeat IPC: 0.679831 cumulative IPC: 0.539167 (Simulation time: 3 hr 57 min 8 sec) 
Heartbeat CPU 0 instructions: 107000000 cycles: 183362883 heartbeat IPC: 0.466901 cumulative IPC: 0.538308 (Simulation time: 3 hr 59 min 0 sec) 
Heartbeat CPU 0 instructions: 108000000 cycles: 185858593 heartbeat IPC: 0.400688 cumulative IPC: 0.536428 (Simulation time: 4 hr 0 min 44 sec) 
Heartbeat CPU 0 instructions: 109000002 cycles: 188338671 heartbeat IPC: 0.403214 cumulative IPC: 0.534644 (Simulation time: 4 hr 2 min 39 sec) 
Heartbeat CPU 0 instructions: 110000002 cycles: 190827303 heartbeat IPC: 0.401827 cumulative IPC: 0.532882 (Simulation time: 4 hr 4 min 45 sec) 
Finished CPU 0 instructions: 100000000 cycles: 187658739 cummulative IPC: 0.532882 (Simulation time: 4 hr 4 min 45 sec) 

ChampSim completed all CPUs

Region of Interest Statistics

CPU 0 cummulative IPC: 0.532882 instructions: 100000000 cycles: 187658739
LLC TOTAL     ACCESS:    3801551  HIT:      33848  MISS:    3767703
LLC LOAD      ACCESS:     657434  HIT:       8918  MISS:     648516
LLC RFO       ACCESS:         20  HIT:          6  MISS:         14
LLC PREFETCH  ACCESS:    2131992  HIT:      23656  MISS:    2108336
LLC WRITEBACK ACCESS:    1012105  HIT:       1268  MISS:    1010837
