
*** ChampSim Multicore Out-of-Order Simulator ***

Warmup Instructions: 10000000
Simulation Instructions: 100000000
Configuration: 2
Number of CPUs: 1
LLC sets: 2048
LLC ways: 16
Off-chip DRAM Channels: 1 Width: 64-bit Data Rate: 1600 MT/s

CPU 0 runs /datasets/cs240c-wi22-a00-public/data/Assignment2-gz/gcc_39B.trace.gz
CPU 0 L1D next line prefetcher
CPU 0 L2C IP-based stride prefetcher
config 2, num_core 1, llc_sets 2048
Heartbeat CPU 0 instructions: 1000000 cycles: 510415 heartbeat IPC: 1.95919 cumulative IPC: 1.95919 (Simulation time: 0 hr 2 min 34 sec) 
Heartbeat CPU 0 instructions: 2000002 cycles: 1020477 heartbeat IPC: 1.96055 cumulative IPC: 1.95987 (Simulation time: 0 hr 4 min 51 sec) 
Heartbeat CPU 0 instructions: 3000002 cycles: 1529254 heartbeat IPC: 1.9655 cumulative IPC: 1.96174 (Simulation time: 0 hr 7 min 12 sec) 
Heartbeat CPU 0 instructions: 4000000 cycles: 2038229 heartbeat IPC: 1.96473 cumulative IPC: 1.96249 (Simulation time: 0 hr 9 min 30 sec) 
Heartbeat CPU 0 instructions: 5000003 cycles: 2547014 heartbeat IPC: 1.96547 cumulative IPC: 1.96308 (Simulation time: 0 hr 12 min 13 sec) 
Heartbeat CPU 0 instructions: 6000000 cycles: 3057390 heartbeat IPC: 1.95933 cumulative IPC: 1.96246 (Simulation time: 0 hr 14 min 52 sec) 
Heartbeat CPU 0 instructions: 7000001 cycles: 3565359 heartbeat IPC: 1.96863 cumulative IPC: 1.96334 (Simulation time: 0 hr 17 min 12 sec) 
Heartbeat CPU 0 instructions: 8000000 cycles: 4078805 heartbeat IPC: 1.94762 cumulative IPC: 1.96136 (Simulation time: 0 hr 19 min 35 sec) 
Heartbeat CPU 0 instructions: 9000002 cycles: 4590941 heartbeat IPC: 1.95261 cumulative IPC: 1.96038 (Simulation time: 0 hr 21 min 46 sec) 
Heartbeat CPU 0 instructions: 10000000 cycles: 5101490 heartbeat IPC: 1.95867 cumulative IPC: 1.96021 (Simulation time: 0 hr 24 min 0 sec) 

Warmup complete CPU 0 instructions: 10000004 cycles: 5101491 (Simulation time: 0 hr 24 min 0 sec) 

Heartbeat CPU 0 instructions: 11000002 cycles: 6484209 heartbeat IPC: 0.723214 cumulative IPC: 0.723212 (Simulation time: 0 hr 27 min 22 sec) 
Heartbeat CPU 0 instructions: 12000000 cycles: 7868654 heartbeat IPC: 0.72231 cumulative IPC: 0.72276 (Simulation time: 0 hr 30 min 36 sec) 
Heartbeat CPU 0 instructions: 13000003 cycles: 9248294 heartbeat IPC: 0.724829 cumulative IPC: 0.723449 (Simulation time: 0 hr 33 min 53 sec) 
Heartbeat CPU 0 instructions: 14000003 cycles: 10633859 heartbeat IPC: 0.721727 cumulative IPC: 0.723018 (Simulation time: 0 hr 37 min 3 sec) 
Heartbeat CPU 0 instructions: 15000001 cycles: 12017434 heartbeat IPC: 0.722764 cumulative IPC: 0.722967 (Simulation time: 0 hr 39 min 55 sec) 
Heartbeat CPU 0 instructions: 16000000 cycles: 13401881 heartbeat IPC: 0.722309 cumulative IPC: 0.722857 (Simulation time: 0 hr 42 min 58 sec) 
Heartbeat CPU 0 instructions: 17000000 cycles: 14787796 heartbeat IPC: 0.721545 cumulative IPC: 0.722669 (Simulation time: 0 hr 46 min 14 sec) 
Heartbeat CPU 0 instructions: 18000000 cycles: 16173289 heartbeat IPC: 0.721765 cumulative IPC: 0.722556 (Simulation time: 0 hr 49 min 8 sec) 
Heartbeat CPU 0 instructions: 19000001 cycles: 17552785 heartbeat IPC: 0.724903 cumulative IPC: 0.722816 (Simulation time: 0 hr 52 min 13 sec) 
Heartbeat CPU 0 instructions: 20000000 cycles: 18931718 heartbeat IPC: 0.725198 cumulative IPC: 0.723054 (Simulation time: 0 hr 55 min 33 sec) 
Heartbeat CPU 0 instructions: 21000001 cycles: 20329313 heartbeat IPC: 0.715516 cumulative IPC: 0.722362 (Simulation time: 0 hr 58 min 50 sec) 
Heartbeat CPU 0 instructions: 22000003 cycles: 21718412 heartbeat IPC: 0.719893 cumulative IPC: 0.722155 (Simulation time: 1 hr 1 min 53 sec) 
Heartbeat CPU 0 instructions: 23000003 cycles: 23100779 heartbeat IPC: 0.723397 cumulative IPC: 0.722251 (Simulation time: 1 hr 4 min 59 sec) 
Heartbeat CPU 0 instructions: 24000000 cycles: 24482017 heartbeat IPC: 0.723986 cumulative IPC: 0.722374 (Simulation time: 1 hr 8 min 0 sec) 
Heartbeat CPU 0 instructions: 25000002 cycles: 25855069 heartbeat IPC: 0.728306 cumulative IPC: 0.722767 (Simulation time: 1 hr 10 min 56 sec) 
Heartbeat CPU 0 instructions: 26000001 cycles: 27231001 heartbeat IPC: 0.726779 cumulative IPC: 0.723016 (Simulation time: 1 hr 13 min 57 sec) 
Heartbeat CPU 0 instructions: 27000000 cycles: 28602123 heartbeat IPC: 0.729329 cumulative IPC: 0.723385 (Simulation time: 1 hr 17 min 9 sec) 
Heartbeat CPU 0 instructions: 28000000 cycles: 29975659 heartbeat IPC: 0.728048 cumulative IPC: 0.723642 (Simulation time: 1 hr 19 min 46 sec) 
Heartbeat CPU 0 instructions: 29000001 cycles: 31339690 heartbeat IPC: 0.733122 cumulative IPC: 0.724135 (Simulation time: 1 hr 22 min 39 sec) 
Heartbeat CPU 0 instructions: 30000003 cycles: 32712367 heartbeat IPC: 0.728505 cumulative IPC: 0.724352 (Simulation time: 1 hr 25 min 51 sec) 
Heartbeat CPU 0 instructions: 31000003 cycles: 34100837 heartbeat IPC: 0.720217 cumulative IPC: 0.724154 (Simulation time: 1 hr 29 min 2 sec) 
Heartbeat CPU 0 instructions: 32000000 cycles: 35477011 heartbeat IPC: 0.72665 cumulative IPC: 0.724267 (Simulation time: 1 hr 32 min 3 sec) 
Heartbeat CPU 0 instructions: 33000002 cycles: 36861322 heartbeat IPC: 0.722382 cumulative IPC: 0.724185 (Simulation time: 1 hr 35 min 16 sec) 
Heartbeat CPU 0 instructions: 34000001 cycles: 38243155 heartbeat IPC: 0.723676 cumulative IPC: 0.724164 (Simulation time: 1 hr 38 min 29 sec) 
Heartbeat CPU 0 instructions: 35000001 cycles: 39624708 heartbeat IPC: 0.723823 cumulative IPC: 0.72415 (Simulation time: 1 hr 41 min 21 sec) 
Heartbeat CPU 0 instructions: 36000000 cycles: 41005478 heartbeat IPC: 0.724233 cumulative IPC: 0.724153 (Simulation time: 1 hr 44 min 21 sec) 
Heartbeat CPU 0 instructions: 37000000 cycles: 42388029 heartbeat IPC: 0.723301 cumulative IPC: 0.724122 (Simulation time: 1 hr 47 min 48 sec) 
Heartbeat CPU 0 instructions: 38000001 cycles: 43770095 heartbeat IPC: 0.723555 cumulative IPC: 0.724102 (Simulation time: 1 hr 50 min 52 sec) 
Heartbeat CPU 0 instructions: 39000000 cycles: 45147924 heartbeat IPC: 0.725779 cumulative IPC: 0.724159 (Simulation time: 1 hr 53 min 34 sec) 
Heartbeat CPU 0 instructions: 40000000 cycles: 46530973 heartbeat IPC: 0.72304 cumulative IPC: 0.724122 (Simulation time: 1 hr 56 min 38 sec) 
Heartbeat CPU 0 instructions: 41000000 cycles: 47913101 heartbeat IPC: 0.723522 cumulative IPC: 0.724103 (Simulation time: 2 hr 0 min 5 sec) 
Heartbeat CPU 0 instructions: 42000001 cycles: 49291551 heartbeat IPC: 0.725453 cumulative IPC: 0.724145 (Simulation time: 2 hr 3 min 3 sec) 
Heartbeat CPU 0 instructions: 43000002 cycles: 50677173 heartbeat IPC: 0.721698 cumulative IPC: 0.72407 (Simulation time: 2 hr 6 min 5 sec) 
Heartbeat CPU 0 instructions: 44000000 cycles: 52076475 heartbeat IPC: 0.714641 cumulative IPC: 0.723789 (Simulation time: 2 hr 9 min 24 sec) 
Heartbeat CPU 0 instructions: 45000000 cycles: 53456557 heartbeat IPC: 0.724595 cumulative IPC: 0.723812 (Simulation time: 2 hr 12 min 29 sec) 
Heartbeat CPU 0 instructions: 46000002 cycles: 54839409 heartbeat IPC: 0.723145 cumulative IPC: 0.723794 (Simulation time: 2 hr 15 min 27 sec) 
Heartbeat CPU 0 instructions: 47000000 cycles: 56224490 heartbeat IPC: 0.721978 cumulative IPC: 0.723745 (Simulation time: 2 hr 18 min 29 sec) 
Heartbeat CPU 0 instructions: 48000000 cycles: 57580856 heartbeat IPC: 0.737264 cumulative IPC: 0.724094 (Simulation time: 2 hr 21 min 11 sec) 
Heartbeat CPU 0 instructions: 49000000 cycles: 58948785 heartbeat IPC: 0.731032 cumulative IPC: 0.72427 (Simulation time: 2 hr 24 min 32 sec) 
Heartbeat CPU 0 instructions: 50000000 cycles: 60343755 heartbeat IPC: 0.716861 cumulative IPC: 0.724083 (Simulation time: 2 hr 27 min 53 sec) 
Heartbeat CPU 0 instructions: 51000000 cycles: 61716180 heartbeat IPC: 0.728637 cumulative IPC: 0.724194 (Simulation time: 2 hr 31 min 15 sec) 
Heartbeat CPU 0 instructions: 52000000 cycles: 63097683 heartbeat IPC: 0.723849 cumulative IPC: 0.724185 (Simulation time: 2 hr 34 min 37 sec) 
Heartbeat CPU 0 instructions: 53000003 cycles: 64475267 heartbeat IPC: 0.725911 cumulative IPC: 0.724225 (Simulation time: 2 hr 37 min 59 sec) 
Heartbeat CPU 0 instructions: 54000000 cycles: 65856742 heartbeat IPC: 0.723862 cumulative IPC: 0.724217 (Simulation time: 2 hr 41 min 13 sec) 
Heartbeat CPU 0 instructions: 55000002 cycles: 67237090 heartbeat IPC: 0.724456 cumulative IPC: 0.724222 (Simulation time: 2 hr 44 min 27 sec) 
Heartbeat CPU 0 instructions: 56000000 cycles: 68615482 heartbeat IPC: 0.725482 cumulative IPC: 0.72425 (Simulation time: 2 hr 47 min 44 sec) 
Heartbeat CPU 0 instructions: 57000000 cycles: 70000077 heartbeat IPC: 0.722233 cumulative IPC: 0.724207 (Simulation time: 2 hr 50 min 50 sec) 
Heartbeat CPU 0 instructions: 58000000 cycles: 71384062 heartbeat IPC: 0.722551 cumulative IPC: 0.724172 (Simulation time: 2 hr 54 min 3 sec) 
Heartbeat CPU 0 instructions: 59000000 cycles: 72768285 heartbeat IPC: 0.722427 cumulative IPC: 0.724137 (Simulation time: 2 hr 57 min 13 sec) 
Heartbeat CPU 0 instructions: 60000000 cycles: 74150769 heartbeat IPC: 0.723336 cumulative IPC: 0.72412 (Simulation time: 3 hr 0 min 34 sec) 
Heartbeat CPU 0 instructions: 61000000 cycles: 75530566 heartbeat IPC: 0.724744 cumulative IPC: 0.724133 (Simulation time: 3 hr 3 min 37 sec) 
Heartbeat CPU 0 instructions: 62000000 cycles: 76915340 heartbeat IPC: 0.722139 cumulative IPC: 0.724094 (Simulation time: 3 hr 6 min 53 sec) 
Heartbeat CPU 0 instructions: 63000001 cycles: 78303730 heartbeat IPC: 0.720259 cumulative IPC: 0.724022 (Simulation time: 3 hr 10 min 32 sec) 
Heartbeat CPU 0 instructions: 64000000 cycles: 79695369 heartbeat IPC: 0.718576 cumulative IPC: 0.72392 (Simulation time: 3 hr 14 min 56 sec) 
Heartbeat CPU 0 instructions: 65000000 cycles: 81069034 heartbeat IPC: 0.72798 cumulative IPC: 0.723993 (Simulation time: 3 hr 19 min 25 sec) 
Heartbeat CPU 0 instructions: 66000001 cycles: 82454725 heartbeat IPC: 0.721662 cumulative IPC: 0.723952 (Simulation time: 3 hr 23 min 54 sec) 
Heartbeat CPU 0 instructions: 67000001 cycles: 83822619 heartbeat IPC: 0.731051 cumulative IPC: 0.724075 (Simulation time: 3 hr 28 min 20 sec) 
Heartbeat CPU 0 instructions: 68000000 cycles: 85188168 heartbeat IPC: 0.732305 cumulative IPC: 0.724215 (Simulation time: 3 hr 31 min 51 sec) 
Heartbeat CPU 0 instructions: 69000000 cycles: 86574942 heartbeat IPC: 0.721098 cumulative IPC: 0.724162 (Simulation time: 3 hr 34 min 54 sec) 
Heartbeat CPU 0 instructions: 70000002 cycles: 87942587 heartbeat IPC: 0.731185 cumulative IPC: 0.724278 (Simulation time: 3 hr 37 min 52 sec) 
Heartbeat CPU 0 instructions: 71000000 cycles: 89315594 heartbeat IPC: 0.728327 cumulative IPC: 0.724344 (Simulation time: 3 hr 41 min 7 sec) 
Heartbeat CPU 0 instructions: 72000000 cycles: 90680516 heartbeat IPC: 0.732643 cumulative IPC: 0.724477 (Simulation time: 3 hr 44 min 6 sec) 
Heartbeat CPU 0 instructions: 73000000 cycles: 92045731 heartbeat IPC: 0.732485 cumulative IPC: 0.724602 (Simulation time: 3 hr 47 min 10 sec) 
Heartbeat CPU 0 instructions: 74000000 cycles: 93423547 heartbeat IPC: 0.725786 cumulative IPC: 0.724621 (Simulation time: 3 hr 49 min 58 sec) 
Heartbeat CPU 0 instructions: 75000001 cycles: 94790660 heartbeat IPC: 0.731469 cumulative IPC: 0.724725 (Simulation time: 3 hr 52 min 44 sec) 
Heartbeat CPU 0 instructions: 76000000 cycles: 96176776 heartbeat IPC: 0.72144 cumulative IPC: 0.724675 (Simulation time: 3 hr 55 min 27 sec) 
Heartbeat CPU 0 instructions: 77000003 cycles: 97543588 heartbeat IPC: 0.731632 cumulative IPC: 0.724778 (Simulation time: 3 hr 57 min 59 sec) 
Heartbeat CPU 0 instructions: 78000000 cycles: 98921651 heartbeat IPC: 0.725654 cumulative IPC: 0.724791 (Simulation time: 4 hr 0 min 35 sec) 
Heartbeat CPU 0 instructions: 79000002 cycles: 100299527 heartbeat IPC: 0.725756 cumulative IPC: 0.724805 (Simulation time: 4 hr 3 min 9 sec) 
Heartbeat CPU 0 instructions: 80000000 cycles: 101684539 heartbeat IPC: 0.722014 cumulative IPC: 0.724765 (Simulation time: 4 hr 5 min 41 sec) 
Heartbeat CPU 0 instructions: 81000000 cycles: 103071998 heartbeat IPC: 0.720742 cumulative IPC: 0.724708 (Simulation time: 4 hr 7 min 55 sec) 
Heartbeat CPU 0 instructions: 82000000 cycles: 104453704 heartbeat IPC: 0.723743 cumulative IPC: 0.724694 (Simulation time: 4 hr 10 min 9 sec) 
Heartbeat CPU 0 instructions: 83000000 cycles: 105838141 heartbeat IPC: 0.722315 cumulative IPC: 0.724662 (Simulation time: 4 hr 12 min 34 sec) 
Heartbeat CPU 0 instructions: 84000000 cycles: 107219937 heartbeat IPC: 0.723696 cumulative IPC: 0.724649 (Simulation time: 4 hr 14 min 51 sec) 
Heartbeat CPU 0 instructions: 85000000 cycles: 108595766 heartbeat IPC: 0.726835 cumulative IPC: 0.724678 (Simulation time: 4 hr 17 min 10 sec) 
Heartbeat CPU 0 instructions: 86000001 cycles: 109978476 heartbeat IPC: 0.723218 cumulative IPC: 0.724658 (Simulation time: 4 hr 19 min 19 sec) 
Heartbeat CPU 0 instructions: 87000001 cycles: 111360799 heartbeat IPC: 0.72342 cumulative IPC: 0.724642 (Simulation time: 4 hr 21 min 36 sec) 
Heartbeat CPU 0 instructions: 88000000 cycles: 112741013 heartbeat IPC: 0.724525 cumulative IPC: 0.724641 (Simulation time: 4 hr 23 min 42 sec) 
Heartbeat CPU 0 instructions: 89000003 cycles: 114123894 heartbeat IPC: 0.72313 cumulative IPC: 0.724622 (Simulation time: 4 hr 25 min 55 sec) 
Heartbeat CPU 0 instructions: 90000000 cycles: 115501278 heartbeat IPC: 0.726012 cumulative IPC: 0.724639 (Simulation time: 4 hr 27 min 59 sec) 
Heartbeat CPU 0 instructions: 91000001 cycles: 116893097 heartbeat IPC: 0.718485 cumulative IPC: 0.724562 (Simulation time: 4 hr 30 min 5 sec) 
Heartbeat CPU 0 instructions: 92000000 cycles: 118278277 heartbeat IPC: 0.721927 cumulative IPC: 0.72453 (Simulation time: 4 hr 31 min 58 sec) 
Heartbeat CPU 0 instructions: 93000000 cycles: 119661336 heartbeat IPC: 0.723035 cumulative IPC: 0.724512 (Simulation time: 4 hr 33 min 45 sec) 
Heartbeat CPU 0 instructions: 94000002 cycles: 121041783 heartbeat IPC: 0.724405 cumulative IPC: 0.724511 (Simulation time: 4 hr 35 min 30 sec) 
Heartbeat CPU 0 instructions: 95000001 cycles: 122421282 heartbeat IPC: 0.7249 cumulative IPC: 0.724515 (Simulation time: 4 hr 37 min 15 sec) 
Heartbeat CPU 0 instructions: 96000000 cycles: 123791064 heartbeat IPC: 0.730042 cumulative IPC: 0.724579 (Simulation time: 4 hr 39 min 2 sec) 
Heartbeat CPU 0 instructions: 97000000 cycles: 125161571 heartbeat IPC: 0.729657 cumulative IPC: 0.724637 (Simulation time: 4 hr 40 min 40 sec) 
Heartbeat CPU 0 instructions: 98000003 cycles: 126531188 heartbeat IPC: 0.730133 cumulative IPC: 0.724699 (Simulation time: 4 hr 42 min 0 sec) 
Heartbeat CPU 0 instructions: 99000000 cycles: 127900069 heartbeat IPC: 0.730522 cumulative IPC: 0.724764 (Simulation time: 4 hr 43 min 4 sec) 
Heartbeat CPU 0 instructions: 100000000 cycles: 129262585 heartbeat IPC: 0.733936 cumulative IPC: 0.724865 (Simulation time: 4 hr 44 min 15 sec) 
Heartbeat CPU 0 instructions: 101000000 cycles: 130627389 heartbeat IPC: 0.732706 cumulative IPC: 0.72495 (Simulation time: 4 hr 45 min 18 sec) 
Heartbeat CPU 0 instructions: 102000002 cycles: 132007972 heartbeat IPC: 0.724333 cumulative IPC: 0.724943 (Simulation time: 4 hr 46 min 21 sec) 
Heartbeat CPU 0 instructions: 103000003 cycles: 133377257 heartbeat IPC: 0.730309 cumulative IPC: 0.725001 (Simulation time: 4 hr 47 min 21 sec) 
Heartbeat CPU 0 instructions: 104000000 cycles: 134754777 heartbeat IPC: 0.72594 cumulative IPC: 0.725011 (Simulation time: 4 hr 48 min 13 sec) 
Heartbeat CPU 0 instructions: 105000000 cycles: 136119515 heartbeat IPC: 0.732741 cumulative IPC: 0.725091 (Simulation time: 4 hr 49 min 6 sec) 
Heartbeat CPU 0 instructions: 106000001 cycles: 137501465 heartbeat IPC: 0.723616 cumulative IPC: 0.725076 (Simulation time: 4 hr 49 min 54 sec) 
Heartbeat CPU 0 instructions: 107000000 cycles: 138886489 heartbeat IPC: 0.722008 cumulative IPC: 0.725044 (Simulation time: 4 hr 50 min 39 sec) 
Heartbeat CPU 0 instructions: 108000000 cycles: 140268666 heartbeat IPC: 0.723496 cumulative IPC: 0.725028 (Simulation time: 4 hr 51 min 25 sec) 
Heartbeat CPU 0 instructions: 109000003 cycles: 141664003 heartbeat IPC: 0.716675 cumulative IPC: 0.724943 (Simulation time: 4 hr 52 min 4 sec) 
Heartbeat CPU 0 instructions: 110000001 cycles: 143046661 heartbeat IPC: 0.723243 cumulative IPC: 0.724926 (Simulation time: 4 hr 52 min 38 sec) 
Finished CPU 0 instructions: 100000001 cycles: 137945171 cummulative IPC: 0.724926 (Simulation time: 4 hr 52 min 38 sec) 

ChampSim completed all CPUs

Region of Interest Statistics

CPU 0 cummulative IPC: 0.724926 instructions: 100000001 cycles: 137945171
LLC TOTAL     ACCESS:      42522  HIT:       1205  MISS:      41317
LLC LOAD      ACCESS:      13577  HIT:        233  MISS:      13344
LLC RFO       ACCESS:       3352  HIT:         12  MISS:       3340
LLC PREFETCH  ACCESS:      17694  HIT:        300  MISS:      17394
LLC WRITEBACK ACCESS:       7899  HIT:        660  MISS:       7239
