
*** ChampSim Multicore Out-of-Order Simulator ***

Warmup Instructions: 10000000
Simulation Instructions: 100000000
Configuration: 2
Number of CPUs: 1
LLC sets: 2048
LLC ways: 16
Off-chip DRAM Channels: 1 Width: 64-bit Data Rate: 1600 MT/s

CPU 0 runs /datasets/cs240c-wi22-a00-public/data/Assignment2-gz/perlbench_105B.trace.gz
CPU 0 L1D next line prefetcher
CPU 0 L2C IP-based stride prefetcher
config 2, num_core 1, llc_sets 2048
Heartbeat CPU 0 instructions: 1000000 cycles: 578016 heartbeat IPC: 1.73006 cumulative IPC: 1.73006 (Simulation time: 0 hr 2 min 48 sec) 
Heartbeat CPU 0 instructions: 2000001 cycles: 1164321 heartbeat IPC: 1.7056 cumulative IPC: 1.71774 (Simulation time: 0 hr 5 min 21 sec) 
Heartbeat CPU 0 instructions: 3000001 cycles: 1726557 heartbeat IPC: 1.77861 cumulative IPC: 1.73756 (Simulation time: 0 hr 7 min 33 sec) 
Heartbeat CPU 0 instructions: 4000000 cycles: 2305993 heartbeat IPC: 1.72581 cumulative IPC: 1.73461 (Simulation time: 0 hr 9 min 39 sec) 
Heartbeat CPU 0 instructions: 5000003 cycles: 2884260 heartbeat IPC: 1.72931 cumulative IPC: 1.73355 (Simulation time: 0 hr 11 min 56 sec) 
Heartbeat CPU 0 instructions: 6000003 cycles: 3447519 heartbeat IPC: 1.77538 cumulative IPC: 1.74038 (Simulation time: 0 hr 14 min 20 sec) 
Heartbeat CPU 0 instructions: 7000000 cycles: 4019987 heartbeat IPC: 1.74682 cumulative IPC: 1.7413 (Simulation time: 0 hr 16 min 23 sec) 
Heartbeat CPU 0 instructions: 8000000 cycles: 4598049 heartbeat IPC: 1.72992 cumulative IPC: 1.73987 (Simulation time: 0 hr 18 min 35 sec) 
Heartbeat CPU 0 instructions: 9000000 cycles: 5176571 heartbeat IPC: 1.72854 cumulative IPC: 1.7386 (Simulation time: 0 hr 20 min 45 sec) 
Heartbeat CPU 0 instructions: 10000002 cycles: 5745489 heartbeat IPC: 1.75773 cumulative IPC: 1.7405 (Simulation time: 0 hr 22 min 46 sec) 

Warmup complete CPU 0 instructions: 10000002 cycles: 5745489 (Simulation time: 0 hr 22 min 46 sec) 

Heartbeat CPU 0 instructions: 11000002 cycles: 8079760 heartbeat IPC: 0.428399 cumulative IPC: 0.428399 (Simulation time: 0 hr 25 min 33 sec) 
Heartbeat CPU 0 instructions: 12000000 cycles: 10435599 heartbeat IPC: 0.424476 cumulative IPC: 0.426429 (Simulation time: 0 hr 28 min 30 sec) 
Heartbeat CPU 0 instructions: 13000000 cycles: 12866632 heartbeat IPC: 0.411348 cumulative IPC: 0.42128 (Simulation time: 0 hr 31 min 44 sec) 
Heartbeat CPU 0 instructions: 14000000 cycles: 15244606 heartbeat IPC: 0.420526 cumulative IPC: 0.421092 (Simulation time: 0 hr 34 min 35 sec) 
Heartbeat CPU 0 instructions: 15000000 cycles: 17595618 heartbeat IPC: 0.425349 cumulative IPC: 0.421936 (Simulation time: 0 hr 37 min 27 sec) 
Heartbeat CPU 0 instructions: 16000000 cycles: 19976093 heartbeat IPC: 0.420084 cumulative IPC: 0.421626 (Simulation time: 0 hr 40 min 20 sec) 
Heartbeat CPU 0 instructions: 17000003 cycles: 22368505 heartbeat IPC: 0.417989 cumulative IPC: 0.421103 (Simulation time: 0 hr 43 min 36 sec) 
Heartbeat CPU 0 instructions: 18000000 cycles: 24612402 heartbeat IPC: 0.445652 cumulative IPC: 0.424023 (Simulation time: 0 hr 46 min 16 sec) 
Heartbeat CPU 0 instructions: 19000000 cycles: 27117282 heartbeat IPC: 0.399221 cumulative IPC: 0.421116 (Simulation time: 0 hr 49 min 10 sec) 
Heartbeat CPU 0 instructions: 20000000 cycles: 29620732 heartbeat IPC: 0.399449 cumulative IPC: 0.418844 (Simulation time: 0 hr 51 min 59 sec) 
Heartbeat CPU 0 instructions: 21000001 cycles: 32122235 heartbeat IPC: 0.39976 cumulative IPC: 0.417034 (Simulation time: 0 hr 54 min 48 sec) 
Heartbeat CPU 0 instructions: 22000001 cycles: 34618056 heartbeat IPC: 0.40067 cumulative IPC: 0.415619 (Simulation time: 0 hr 57 min 36 sec) 
Heartbeat CPU 0 instructions: 23000000 cycles: 37109945 heartbeat IPC: 0.401302 cumulative IPC: 0.414482 (Simulation time: 1 hr 0 min 35 sec) 
Heartbeat CPU 0 instructions: 24000000 cycles: 39592832 heartbeat IPC: 0.402757 cumulative IPC: 0.413622 (Simulation time: 1 hr 3 min 24 sec) 
Heartbeat CPU 0 instructions: 25000001 cycles: 42055416 heartbeat IPC: 0.406078 cumulative IPC: 0.41311 (Simulation time: 1 hr 6 min 5 sec) 
Heartbeat CPU 0 instructions: 26000001 cycles: 44327979 heartbeat IPC: 0.440032 cumulative IPC: 0.414696 (Simulation time: 1 hr 9 min 17 sec) 
Heartbeat CPU 0 instructions: 27000003 cycles: 46822809 heartbeat IPC: 0.40083 cumulative IPC: 0.413854 (Simulation time: 1 hr 12 min 24 sec) 
Heartbeat CPU 0 instructions: 28000000 cycles: 49326095 heartbeat IPC: 0.399474 cumulative IPC: 0.413028 (Simulation time: 1 hr 15 min 28 sec) 
Heartbeat CPU 0 instructions: 29000001 cycles: 51827756 heartbeat IPC: 0.399735 cumulative IPC: 0.412306 (Simulation time: 1 hr 18 min 20 sec) 
Heartbeat CPU 0 instructions: 30000001 cycles: 54325160 heartbeat IPC: 0.400416 cumulative IPC: 0.411695 (Simulation time: 1 hr 21 min 5 sec) 
Heartbeat CPU 0 instructions: 31000000 cycles: 56816976 heartbeat IPC: 0.401313 cumulative IPC: 0.411188 (Simulation time: 1 hr 24 min 2 sec) 
Heartbeat CPU 0 instructions: 32000000 cycles: 59302103 heartbeat IPC: 0.402394 cumulative IPC: 0.41078 (Simulation time: 1 hr 27 min 15 sec) 
Heartbeat CPU 0 instructions: 33000001 cycles: 61770175 heartbeat IPC: 0.405175 cumulative IPC: 0.410533 (Simulation time: 1 hr 30 min 22 sec) 
Heartbeat CPU 0 instructions: 34000002 cycles: 64180929 heartbeat IPC: 0.414808 cumulative IPC: 0.41071 (Simulation time: 1 hr 33 min 27 sec) 
Heartbeat CPU 0 instructions: 35000002 cycles: 66644254 heartbeat IPC: 0.405955 cumulative IPC: 0.410517 (Simulation time: 1 hr 36 min 11 sec) 
Heartbeat CPU 0 instructions: 36000000 cycles: 69271410 heartbeat IPC: 0.380639 cumulative IPC: 0.409282 (Simulation time: 1 hr 38 min 39 sec) 
Heartbeat CPU 0 instructions: 37000001 cycles: 72348763 heartbeat IPC: 0.324955 cumulative IPC: 0.405385 (Simulation time: 1 hr 41 min 43 sec) 
Heartbeat CPU 0 instructions: 38000000 cycles: 75182546 heartbeat IPC: 0.352885 cumulative IPC: 0.403243 (Simulation time: 1 hr 44 min 27 sec) 
Heartbeat CPU 0 instructions: 39000000 cycles: 78171838 heartbeat IPC: 0.334527 cumulative IPC: 0.400407 (Simulation time: 1 hr 47 min 16 sec) 
Heartbeat CPU 0 instructions: 40000000 cycles: 81131879 heartbeat IPC: 0.337833 cumulative IPC: 0.39795 (Simulation time: 1 hr 50 min 1 sec) 
Heartbeat CPU 0 instructions: 41000000 cycles: 84068462 heartbeat IPC: 0.340532 cumulative IPC: 0.395797 (Simulation time: 1 hr 52 min 37 sec) 
Heartbeat CPU 0 instructions: 42000002 cycles: 86997618 heartbeat IPC: 0.341396 cumulative IPC: 0.393836 (Simulation time: 1 hr 55 min 35 sec) 
Heartbeat CPU 0 instructions: 43000000 cycles: 89990841 heartbeat IPC: 0.334087 cumulative IPC: 0.391713 (Simulation time: 1 hr 58 min 10 sec) 
Heartbeat CPU 0 instructions: 44000000 cycles: 92919696 heartbeat IPC: 0.34143 cumulative IPC: 0.390024 (Simulation time: 2 hr 0 min 53 sec) 
Heartbeat CPU 0 instructions: 45000001 cycles: 95757554 heartbeat IPC: 0.352379 cumulative IPC: 0.388837 (Simulation time: 2 hr 3 min 35 sec) 
Heartbeat CPU 0 instructions: 46000003 cycles: 98507735 heartbeat IPC: 0.363613 cumulative IPC: 0.388089 (Simulation time: 2 hr 6 min 16 sec) 
Heartbeat CPU 0 instructions: 47000002 cycles: 101423619 heartbeat IPC: 0.342949 cumulative IPC: 0.386713 (Simulation time: 2 hr 9 min 4 sec) 
Heartbeat CPU 0 instructions: 48000000 cycles: 104298770 heartbeat IPC: 0.347807 cumulative IPC: 0.385578 (Simulation time: 2 hr 11 min 44 sec) 
Heartbeat CPU 0 instructions: 49000002 cycles: 107201141 heartbeat IPC: 0.344547 cumulative IPC: 0.384404 (Simulation time: 2 hr 14 min 8 sec) 
Heartbeat CPU 0 instructions: 50000002 cycles: 110109556 heartbeat IPC: 0.34383 cumulative IPC: 0.383274 (Simulation time: 2 hr 16 min 45 sec) 
Heartbeat CPU 0 instructions: 51000003 cycles: 113031723 heartbeat IPC: 0.342212 cumulative IPC: 0.382155 (Simulation time: 2 hr 19 min 23 sec) 
Heartbeat CPU 0 instructions: 52000000 cycles: 115916386 heartbeat IPC: 0.34666 cumulative IPC: 0.381226 (Simulation time: 2 hr 22 min 3 sec) 
Heartbeat CPU 0 instructions: 53000000 cycles: 118775506 heartbeat IPC: 0.349758 cumulative IPC: 0.38043 (Simulation time: 2 hr 24 min 38 sec) 
Heartbeat CPU 0 instructions: 54000000 cycles: 121719085 heartbeat IPC: 0.339722 cumulative IPC: 0.379397 (Simulation time: 2 hr 27 min 10 sec) 
Heartbeat CPU 0 instructions: 55000003 cycles: 124528433 heartbeat IPC: 0.355956 cumulative IPC: 0.378842 (Simulation time: 2 hr 29 min 47 sec) 
Heartbeat CPU 0 instructions: 56000000 cycles: 126961482 heartbeat IPC: 0.411006 cumulative IPC: 0.379488 (Simulation time: 2 hr 32 min 43 sec) 
Heartbeat CPU 0 instructions: 57000002 cycles: 129238615 heartbeat IPC: 0.43915 cumulative IPC: 0.380588 (Simulation time: 2 hr 35 min 24 sec) 
Heartbeat CPU 0 instructions: 58000001 cycles: 130606716 heartbeat IPC: 0.730939 cumulative IPC: 0.384427 (Simulation time: 2 hr 37 min 54 sec) 
Heartbeat CPU 0 instructions: 59000002 cycles: 132893381 heartbeat IPC: 0.437319 cumulative IPC: 0.385378 (Simulation time: 2 hr 40 min 37 sec) 
Heartbeat CPU 0 instructions: 60000000 cycles: 135243530 heartbeat IPC: 0.425504 cumulative IPC: 0.386106 (Simulation time: 2 hr 43 min 46 sec) 
Heartbeat CPU 0 instructions: 61000002 cycles: 137693020 heartbeat IPC: 0.408249 cumulative IPC: 0.386517 (Simulation time: 2 hr 46 min 44 sec) 
Heartbeat CPU 0 instructions: 62000000 cycles: 140059308 heartbeat IPC: 0.422602 cumulative IPC: 0.387153 (Simulation time: 2 hr 49 min 59 sec) 
Heartbeat CPU 0 instructions: 63000000 cycles: 142422010 heartbeat IPC: 0.423244 cumulative IPC: 0.387777 (Simulation time: 2 hr 53 min 6 sec) 
Heartbeat CPU 0 instructions: 64000000 cycles: 144841504 heartbeat IPC: 0.41331 cumulative IPC: 0.388221 (Simulation time: 2 hr 56 min 8 sec) 
Heartbeat CPU 0 instructions: 65000003 cycles: 147167093 heartbeat IPC: 0.43 cumulative IPC: 0.388908 (Simulation time: 2 hr 59 min 15 sec) 
Heartbeat CPU 0 instructions: 66000002 cycles: 149510326 heartbeat IPC: 0.42676 cumulative IPC: 0.389525 (Simulation time: 3 hr 2 min 11 sec) 
Heartbeat CPU 0 instructions: 67000001 cycles: 151865986 heartbeat IPC: 0.424509 cumulative IPC: 0.390089 (Simulation time: 3 hr 5 min 0 sec) 
Heartbeat CPU 0 instructions: 68000000 cycles: 154314177 heartbeat IPC: 0.408464 cumulative IPC: 0.390392 (Simulation time: 3 hr 7 min 54 sec) 
Heartbeat CPU 0 instructions: 69000001 cycles: 156666644 heartbeat IPC: 0.425086 cumulative IPC: 0.390933 (Simulation time: 3 hr 10 min 51 sec) 
Heartbeat CPU 0 instructions: 70000000 cycles: 159082482 heartbeat IPC: 0.413935 cumulative IPC: 0.391295 (Simulation time: 3 hr 14 min 38 sec) 
Heartbeat CPU 0 instructions: 71000000 cycles: 161468956 heartbeat IPC: 0.419028 cumulative IPC: 0.39172 (Simulation time: 3 hr 17 min 41 sec) 
Heartbeat CPU 0 instructions: 72000000 cycles: 163798174 heartbeat IPC: 0.429329 cumulative IPC: 0.392274 (Simulation time: 3 hr 20 min 41 sec) 
Heartbeat CPU 0 instructions: 73000000 cycles: 166131899 heartbeat IPC: 0.428499 cumulative IPC: 0.392801 (Simulation time: 3 hr 23 min 57 sec) 
Heartbeat CPU 0 instructions: 74000002 cycles: 168517583 heartbeat IPC: 0.419168 cumulative IPC: 0.393188 (Simulation time: 3 hr 26 min 47 sec) 
Heartbeat CPU 0 instructions: 75000000 cycles: 170941032 heartbeat IPC: 0.412634 cumulative IPC: 0.393473 (Simulation time: 3 hr 29 min 39 sec) 
Heartbeat CPU 0 instructions: 76000000 cycles: 173300499 heartbeat IPC: 0.423825 cumulative IPC: 0.3939 (Simulation time: 3 hr 32 min 42 sec) 
Heartbeat CPU 0 instructions: 77000000 cycles: 175734994 heartbeat IPC: 0.410763 cumulative IPC: 0.394142 (Simulation time: 3 hr 36 min 3 sec) 
Heartbeat CPU 0 instructions: 78000002 cycles: 178100653 heartbeat IPC: 0.422716 cumulative IPC: 0.394534 (Simulation time: 3 hr 39 min 2 sec) 
Heartbeat CPU 0 instructions: 79000001 cycles: 180437135 heartbeat IPC: 0.427993 cumulative IPC: 0.394982 (Simulation time: 3 hr 42 min 13 sec) 
Heartbeat CPU 0 instructions: 80000000 cycles: 182769143 heartbeat IPC: 0.428815 cumulative IPC: 0.395427 (Simulation time: 3 hr 44 min 54 sec) 
Heartbeat CPU 0 instructions: 81000000 cycles: 185192827 heartbeat IPC: 0.412595 cumulative IPC: 0.395659 (Simulation time: 3 hr 47 min 42 sec) 
Heartbeat CPU 0 instructions: 82000000 cycles: 187556419 heartbeat IPC: 0.423085 cumulative IPC: 0.396016 (Simulation time: 3 hr 50 min 34 sec) 
Heartbeat CPU 0 instructions: 83000002 cycles: 189877368 heartbeat IPC: 0.430859 cumulative IPC: 0.396455 (Simulation time: 3 hr 53 min 2 sec) 
Heartbeat CPU 0 instructions: 84000000 cycles: 192299920 heartbeat IPC: 0.412787 cumulative IPC: 0.396667 (Simulation time: 3 hr 56 min 4 sec) 
Heartbeat CPU 0 instructions: 85000000 cycles: 194674842 heartbeat IPC: 0.421066 cumulative IPC: 0.396974 (Simulation time: 3 hr 59 min 1 sec) 
Heartbeat CPU 0 instructions: 86000000 cycles: 197024632 heartbeat IPC: 0.42557 cumulative IPC: 0.397325 (Simulation time: 4 hr 2 min 8 sec) 
Heartbeat CPU 0 instructions: 87000001 cycles: 199470951 heartbeat IPC: 0.408778 cumulative IPC: 0.39747 (Simulation time: 4 hr 5 min 18 sec) 
Heartbeat CPU 0 instructions: 88000000 cycles: 201836605 heartbeat IPC: 0.422716 cumulative IPC: 0.397774 (Simulation time: 4 hr 8 min 15 sec) 
Heartbeat CPU 0 instructions: 89000002 cycles: 204161940 heartbeat IPC: 0.430046 cumulative IPC: 0.398152 (Simulation time: 4 hr 11 min 11 sec) 
Heartbeat CPU 0 instructions: 90000002 cycles: 206525762 heartbeat IPC: 0.423044 cumulative IPC: 0.398446 (Simulation time: 4 hr 13 min 50 sec) 
Heartbeat CPU 0 instructions: 91000003 cycles: 208942325 heartbeat IPC: 0.413811 cumulative IPC: 0.398628 (Simulation time: 4 hr 16 min 43 sec) 
Heartbeat CPU 0 instructions: 92000000 cycles: 211302668 heartbeat IPC: 0.423666 cumulative IPC: 0.398916 (Simulation time: 4 hr 19 min 17 sec) 
Heartbeat CPU 0 instructions: 93000001 cycles: 213649593 heartbeat IPC: 0.42609 cumulative IPC: 0.399223 (Simulation time: 4 hr 21 min 49 sec) 
Heartbeat CPU 0 instructions: 94000002 cycles: 216102055 heartbeat IPC: 0.407754 cumulative IPC: 0.399322 (Simulation time: 4 hr 24 min 25 sec) 
Heartbeat CPU 0 instructions: 95000000 cycles: 218463072 heartbeat IPC: 0.423545 cumulative IPC: 0.399591 (Simulation time: 4 hr 27 min 2 sec) 
Heartbeat CPU 0 instructions: 96000000 cycles: 220786363 heartbeat IPC: 0.430424 cumulative IPC: 0.399924 (Simulation time: 4 hr 29 min 27 sec) 
Heartbeat CPU 0 instructions: 97000000 cycles: 223173193 heartbeat IPC: 0.418966 cumulative IPC: 0.400133 (Simulation time: 4 hr 31 min 37 sec) 
Heartbeat CPU 0 instructions: 98000001 cycles: 225573206 heartbeat IPC: 0.416665 cumulative IPC: 0.400313 (Simulation time: 4 hr 33 min 46 sec) 
Heartbeat CPU 0 instructions: 99000002 cycles: 227932165 heartbeat IPC: 0.423916 cumulative IPC: 0.400564 (Simulation time: 4 hr 35 min 46 sec) 
Heartbeat CPU 0 instructions: 100000000 cycles: 230287767 heartbeat IPC: 0.424519 cumulative IPC: 0.400815 (Simulation time: 4 hr 37 min 40 sec) 
Heartbeat CPU 0 instructions: 101000000 cycles: 232703430 heartbeat IPC: 0.413965 cumulative IPC: 0.400955 (Simulation time: 4 hr 39 min 36 sec) 
Heartbeat CPU 0 instructions: 102000000 cycles: 234937314 heartbeat IPC: 0.447651 cumulative IPC: 0.40141 (Simulation time: 4 hr 41 min 28 sec) 
Heartbeat CPU 0 instructions: 103000001 cycles: 237441914 heartbeat IPC: 0.399266 cumulative IPC: 0.401387 (Simulation time: 4 hr 43 min 39 sec) 
Heartbeat CPU 0 instructions: 104000000 cycles: 239944434 heartbeat IPC: 0.399597 cumulative IPC: 0.401368 (Simulation time: 4 hr 44 min 49 sec) 
Heartbeat CPU 0 instructions: 105000000 cycles: 242444307 heartbeat IPC: 0.40002 cumulative IPC: 0.401354 (Simulation time: 4 hr 45 min 51 sec) 
Heartbeat CPU 0 instructions: 106000000 cycles: 244940512 heartbeat IPC: 0.400608 cumulative IPC: 0.401346 (Simulation time: 4 hr 46 min 48 sec) 
Heartbeat CPU 0 instructions: 107000001 cycles: 247431104 heartbeat IPC: 0.401511 cumulative IPC: 0.401348 (Simulation time: 4 hr 47 min 46 sec) 
Heartbeat CPU 0 instructions: 108000000 cycles: 249911510 heartbeat IPC: 0.403159 cumulative IPC: 0.401366 (Simulation time: 4 hr 48 min 42 sec) 
Heartbeat CPU 0 instructions: 109000002 cycles: 252367659 heartbeat IPC: 0.407142 cumulative IPC: 0.401424 (Simulation time: 4 hr 49 min 33 sec) 
Heartbeat CPU 0 instructions: 110000000 cycles: 254688238 heartbeat IPC: 0.430926 cumulative IPC: 0.401699 (Simulation time: 4 hr 50 min 20 sec) 
Finished CPU 0 instructions: 100000000 cycles: 248942775 cummulative IPC: 0.401699 (Simulation time: 4 hr 50 min 20 sec) 

ChampSim completed all CPUs

Region of Interest Statistics

CPU 0 cummulative IPC: 0.401699 instructions: 100000000 cycles: 248942775
LLC TOTAL     ACCESS:     156530  HIT:      74365  MISS:      82165
LLC LOAD      ACCESS:      70493  HIT:      13700  MISS:      56793
LLC RFO       ACCESS:      11261  HIT:       4738  MISS:       6523
LLC PREFETCH  ACCESS:      50050  HIT:      39935  MISS:      10115
LLC WRITEBACK ACCESS:      24726  HIT:      15992  MISS:       8734
