
*** ChampSim Multicore Out-of-Order Simulator ***

Warmup Instructions: 10000000
Simulation Instructions: 100000000
Configuration: 2
Number of CPUs: 1
LLC sets: 2048
LLC ways: 16
Off-chip DRAM Channels: 1 Width: 64-bit Data Rate: 1600 MT/s

CPU 0 runs /datasets/cs240c-wi22-a00-public/data/Assignment2-gz/omnetpp_340B.trace.gz
CPU 0 L1D next line prefetcher
CPU 0 L2C IP-based stride prefetcher
config 2, num_core 1, llc_sets 2048
Heartbeat CPU 0 instructions: 1000001 cycles: 577014 heartbeat IPC: 1.73306 cumulative IPC: 1.73306 (Simulation time: 0 hr 3 min 1 sec) 
Heartbeat CPU 0 instructions: 2000000 cycles: 1161074 heartbeat IPC: 1.71215 cumulative IPC: 1.72254 (Simulation time: 0 hr 5 min 47 sec) 
Heartbeat CPU 0 instructions: 3000001 cycles: 1758566 heartbeat IPC: 1.67366 cumulative IPC: 1.70594 (Simulation time: 0 hr 8 min 34 sec) 
Heartbeat CPU 0 instructions: 4000000 cycles: 2379729 heartbeat IPC: 1.60988 cumulative IPC: 1.68086 (Simulation time: 0 hr 11 min 24 sec) 
Heartbeat CPU 0 instructions: 5000002 cycles: 2955648 heartbeat IPC: 1.73636 cumulative IPC: 1.69168 (Simulation time: 0 hr 14 min 26 sec) 
Heartbeat CPU 0 instructions: 6000003 cycles: 3557119 heartbeat IPC: 1.66259 cumulative IPC: 1.68676 (Simulation time: 0 hr 17 min 28 sec) 
Heartbeat CPU 0 instructions: 7000003 cycles: 4206718 heartbeat IPC: 1.53941 cumulative IPC: 1.66401 (Simulation time: 0 hr 20 min 13 sec) 
Heartbeat CPU 0 instructions: 8000000 cycles: 4801431 heartbeat IPC: 1.68148 cumulative IPC: 1.66617 (Simulation time: 0 hr 23 min 4 sec) 
Heartbeat CPU 0 instructions: 9000002 cycles: 5435129 heartbeat IPC: 1.57804 cumulative IPC: 1.65589 (Simulation time: 0 hr 25 min 59 sec) 
Heartbeat CPU 0 instructions: 10000002 cycles: 6029813 heartbeat IPC: 1.68157 cumulative IPC: 1.65843 (Simulation time: 0 hr 28 min 44 sec) 

Warmup complete CPU 0 instructions: 10000002 cycles: 6029813 (Simulation time: 0 hr 28 min 44 sec) 

Heartbeat CPU 0 instructions: 11000000 cycles: 9803618 heartbeat IPC: 0.264984 cumulative IPC: 0.264984 (Simulation time: 0 hr 32 min 28 sec) 
Heartbeat CPU 0 instructions: 12000000 cycles: 13431716 heartbeat IPC: 0.275627 cumulative IPC: 0.270201 (Simulation time: 0 hr 36 min 3 sec) 
Heartbeat CPU 0 instructions: 13000000 cycles: 17481157 heartbeat IPC: 0.246948 cumulative IPC: 0.261978 (Simulation time: 0 hr 39 min 41 sec) 
Heartbeat CPU 0 instructions: 14000001 cycles: 21507582 heartbeat IPC: 0.24836 cumulative IPC: 0.258435 (Simulation time: 0 hr 43 min 11 sec) 
Heartbeat CPU 0 instructions: 15000003 cycles: 25569055 heartbeat IPC: 0.246217 cumulative IPC: 0.255895 (Simulation time: 0 hr 46 min 53 sec) 
Heartbeat CPU 0 instructions: 16000000 cycles: 30095379 heartbeat IPC: 0.220929 cumulative IPC: 0.249319 (Simulation time: 0 hr 50 min 36 sec) 
Heartbeat CPU 0 instructions: 17000000 cycles: 33904915 heartbeat IPC: 0.262499 cumulative IPC: 0.25112 (Simulation time: 0 hr 53 min 39 sec) 
Heartbeat CPU 0 instructions: 18000000 cycles: 37899369 heartbeat IPC: 0.250347 cumulative IPC: 0.251023 (Simulation time: 0 hr 57 min 12 sec) 
Heartbeat CPU 0 instructions: 19000000 cycles: 42412742 heartbeat IPC: 0.221564 cumulative IPC: 0.247369 (Simulation time: 1 hr 0 min 39 sec) 
Heartbeat CPU 0 instructions: 20000000 cycles: 46672253 heartbeat IPC: 0.234769 cumulative IPC: 0.246048 (Simulation time: 1 hr 4 min 2 sec) 
Heartbeat CPU 0 instructions: 21000000 cycles: 50189651 heartbeat IPC: 0.284301 cumulative IPC: 0.249095 (Simulation time: 1 hr 7 min 41 sec) 
Heartbeat CPU 0 instructions: 22000001 cycles: 54153398 heartbeat IPC: 0.252287 cumulative IPC: 0.249358 (Simulation time: 1 hr 11 min 5 sec) 
Heartbeat CPU 0 instructions: 23000001 cycles: 58046686 heartbeat IPC: 0.256852 cumulative IPC: 0.249919 (Simulation time: 1 hr 14 min 29 sec) 
Heartbeat CPU 0 instructions: 24000000 cycles: 61852622 heartbeat IPC: 0.262747 cumulative IPC: 0.250794 (Simulation time: 1 hr 17 min 28 sec) 
Heartbeat CPU 0 instructions: 25000000 cycles: 66006014 heartbeat IPC: 0.240767 cumulative IPC: 0.250099 (Simulation time: 1 hr 20 min 40 sec) 
Heartbeat CPU 0 instructions: 26000001 cycles: 70194396 heartbeat IPC: 0.238756 cumulative IPC: 0.249359 (Simulation time: 1 hr 24 min 0 sec) 
Heartbeat CPU 0 instructions: 27000000 cycles: 74278769 heartbeat IPC: 0.244835 cumulative IPC: 0.249088 (Simulation time: 1 hr 27 min 31 sec) 
Heartbeat CPU 0 instructions: 28000000 cycles: 78318510 heartbeat IPC: 0.247541 cumulative IPC: 0.249002 (Simulation time: 1 hr 31 min 22 sec) 
Heartbeat CPU 0 instructions: 29000003 cycles: 82370935 heartbeat IPC: 0.246767 cumulative IPC: 0.248883 (Simulation time: 1 hr 35 min 4 sec) 
Heartbeat CPU 0 instructions: 30000000 cycles: 86217769 heartbeat IPC: 0.259953 cumulative IPC: 0.249414 (Simulation time: 1 hr 38 min 27 sec) 
Heartbeat CPU 0 instructions: 31000000 cycles: 90008346 heartbeat IPC: 0.263812 cumulative IPC: 0.250064 (Simulation time: 1 hr 42 min 0 sec) 
Heartbeat CPU 0 instructions: 32000000 cycles: 93844779 heartbeat IPC: 0.260659 cumulative IPC: 0.250527 (Simulation time: 1 hr 45 min 36 sec) 
Heartbeat CPU 0 instructions: 33000003 cycles: 97610185 heartbeat IPC: 0.265576 cumulative IPC: 0.251146 (Simulation time: 1 hr 49 min 28 sec) 
Heartbeat CPU 0 instructions: 34000001 cycles: 101842337 heartbeat IPC: 0.236286 cumulative IPC: 0.250489 (Simulation time: 1 hr 53 min 6 sec) 
Heartbeat CPU 0 instructions: 35000002 cycles: 105487304 heartbeat IPC: 0.274351 cumulative IPC: 0.251364 (Simulation time: 1 hr 56 min 28 sec) 
Heartbeat CPU 0 instructions: 36000000 cycles: 109934122 heartbeat IPC: 0.224879 cumulative IPC: 0.25023 (Simulation time: 2 hr 0 min 3 sec) 
Heartbeat CPU 0 instructions: 37000000 cycles: 114488182 heartbeat IPC: 0.219584 cumulative IPC: 0.248943 (Simulation time: 2 hr 3 min 38 sec) 
Heartbeat CPU 0 instructions: 38000000 cycles: 118395838 heartbeat IPC: 0.255908 cumulative IPC: 0.249186 (Simulation time: 2 hr 7 min 19 sec) 
Heartbeat CPU 0 instructions: 39000001 cycles: 122559560 heartbeat IPC: 0.24017 cumulative IPC: 0.248863 (Simulation time: 2 hr 10 min 46 sec) 
Heartbeat CPU 0 instructions: 40000000 cycles: 126103311 heartbeat IPC: 0.282187 cumulative IPC: 0.249847 (Simulation time: 2 hr 14 min 7 sec) 
Heartbeat CPU 0 instructions: 41000000 cycles: 129905347 heartbeat IPC: 0.263017 cumulative IPC: 0.250251 (Simulation time: 2 hr 17 min 26 sec) 
Heartbeat CPU 0 instructions: 42000001 cycles: 134279368 heartbeat IPC: 0.228623 cumulative IPC: 0.249514 (Simulation time: 2 hr 20 min 45 sec) 
Heartbeat CPU 0 instructions: 43000001 cycles: 138536924 heartbeat IPC: 0.234877 cumulative IPC: 0.249043 (Simulation time: 2 hr 24 min 22 sec) 
Heartbeat CPU 0 instructions: 44000000 cycles: 142383924 heartbeat IPC: 0.259943 cumulative IPC: 0.249351 (Simulation time: 2 hr 27 min 39 sec) 
Heartbeat CPU 0 instructions: 45000003 cycles: 146238423 heartbeat IPC: 0.259438 cumulative IPC: 0.249628 (Simulation time: 2 hr 31 min 20 sec) 
Heartbeat CPU 0 instructions: 46000003 cycles: 150376158 heartbeat IPC: 0.241678 cumulative IPC: 0.2494 (Simulation time: 2 hr 34 min 51 sec) 
Heartbeat CPU 0 instructions: 47000000 cycles: 153669145 heartbeat IPC: 0.303675 cumulative IPC: 0.250611 (Simulation time: 2 hr 38 min 25 sec) 
Heartbeat CPU 0 instructions: 48000000 cycles: 157869014 heartbeat IPC: 0.238103 cumulative IPC: 0.250265 (Simulation time: 2 hr 41 min 49 sec) 
Heartbeat CPU 0 instructions: 49000000 cycles: 161003078 heartbeat IPC: 0.319075 cumulative IPC: 0.251656 (Simulation time: 2 hr 44 min 48 sec) 
Heartbeat CPU 0 instructions: 50000001 cycles: 165182203 heartbeat IPC: 0.239285 cumulative IPC: 0.251331 (Simulation time: 2 hr 48 min 18 sec) 
Heartbeat CPU 0 instructions: 51000003 cycles: 169031795 heartbeat IPC: 0.259768 cumulative IPC: 0.251531 (Simulation time: 2 hr 51 min 47 sec) 
Heartbeat CPU 0 instructions: 52000000 cycles: 173023145 heartbeat IPC: 0.250541 cumulative IPC: 0.251507 (Simulation time: 2 hr 55 min 39 sec) 
Heartbeat CPU 0 instructions: 53000000 cycles: 177787374 heartbeat IPC: 0.209898 cumulative IPC: 0.250353 (Simulation time: 2 hr 59 min 1 sec) 
Heartbeat CPU 0 instructions: 54000002 cycles: 182073893 heartbeat IPC: 0.23329 cumulative IPC: 0.249937 (Simulation time: 3 hr 2 min 45 sec) 
Heartbeat CPU 0 instructions: 55000001 cycles: 186024726 heartbeat IPC: 0.253111 cumulative IPC: 0.250007 (Simulation time: 3 hr 6 min 17 sec) 
Heartbeat CPU 0 instructions: 56000000 cycles: 190436367 heartbeat IPC: 0.226673 cumulative IPC: 0.249449 (Simulation time: 3 hr 9 min 58 sec) 
Heartbeat CPU 0 instructions: 57000001 cycles: 194576779 heartbeat IPC: 0.241522 cumulative IPC: 0.249275 (Simulation time: 3 hr 13 min 44 sec) 
Heartbeat CPU 0 instructions: 58000000 cycles: 198017287 heartbeat IPC: 0.290654 cumulative IPC: 0.250016 (Simulation time: 3 hr 17 min 14 sec) 
Heartbeat CPU 0 instructions: 59000003 cycles: 202076305 heartbeat IPC: 0.246366 cumulative IPC: 0.249941 (Simulation time: 3 hr 20 min 55 sec) 
Heartbeat CPU 0 instructions: 60000000 cycles: 206666887 heartbeat IPC: 0.217837 cumulative IPC: 0.249206 (Simulation time: 3 hr 24 min 32 sec) 
Heartbeat CPU 0 instructions: 61000001 cycles: 211108347 heartbeat IPC: 0.225151 cumulative IPC: 0.248685 (Simulation time: 3 hr 28 min 3 sec) 
Heartbeat CPU 0 instructions: 62000000 cycles: 215552376 heartbeat IPC: 0.225021 cumulative IPC: 0.248183 (Simulation time: 3 hr 31 min 40 sec) 
Heartbeat CPU 0 instructions: 63000001 cycles: 219477805 heartbeat IPC: 0.254749 cumulative IPC: 0.248304 (Simulation time: 3 hr 35 min 6 sec) 
Heartbeat CPU 0 instructions: 64000000 cycles: 223395605 heartbeat IPC: 0.255245 cumulative IPC: 0.248429 (Simulation time: 3 hr 38 min 29 sec) 
Heartbeat CPU 0 instructions: 65000001 cycles: 226963220 heartbeat IPC: 0.2803 cumulative IPC: 0.248944 (Simulation time: 3 hr 41 min 55 sec) 
Heartbeat CPU 0 instructions: 66000002 cycles: 231169991 heartbeat IPC: 0.237712 cumulative IPC: 0.248734 (Simulation time: 3 hr 45 min 13 sec) 
Heartbeat CPU 0 instructions: 67000002 cycles: 235138867 heartbeat IPC: 0.251961 cumulative IPC: 0.24879 (Simulation time: 3 hr 48 min 8 sec) 
Heartbeat CPU 0 instructions: 68000000 cycles: 238896883 heartbeat IPC: 0.266097 cumulative IPC: 0.249069 (Simulation time: 3 hr 51 min 15 sec) 
Heartbeat CPU 0 instructions: 69000000 cycles: 242920948 heartbeat IPC: 0.248505 cumulative IPC: 0.24906 (Simulation time: 3 hr 54 min 35 sec) 
Heartbeat CPU 0 instructions: 70000001 cycles: 246683716 heartbeat IPC: 0.265762 cumulative IPC: 0.249321 (Simulation time: 3 hr 57 min 42 sec) 
Heartbeat CPU 0 instructions: 71000003 cycles: 250473807 heartbeat IPC: 0.263846 cumulative IPC: 0.249546 (Simulation time: 4 hr 1 min 4 sec) 
Heartbeat CPU 0 instructions: 72000000 cycles: 254989519 heartbeat IPC: 0.221448 cumulative IPC: 0.249036 (Simulation time: 4 hr 4 min 17 sec) 
Heartbeat CPU 0 instructions: 73000002 cycles: 259043568 heartbeat IPC: 0.246667 cumulative IPC: 0.248998 (Simulation time: 4 hr 7 min 3 sec) 
Heartbeat CPU 0 instructions: 74000000 cycles: 262921308 heartbeat IPC: 0.257882 cumulative IPC: 0.249132 (Simulation time: 4 hr 9 min 55 sec) 
Heartbeat CPU 0 instructions: 75000003 cycles: 266948977 heartbeat IPC: 0.248283 cumulative IPC: 0.249119 (Simulation time: 4 hr 12 min 56 sec) 
Heartbeat CPU 0 instructions: 76000000 cycles: 270887524 heartbeat IPC: 0.2539 cumulative IPC: 0.24919 (Simulation time: 4 hr 15 min 55 sec) 
Heartbeat CPU 0 instructions: 77000002 cycles: 275705263 heartbeat IPC: 0.207567 cumulative IPC: 0.248447 (Simulation time: 4 hr 18 min 41 sec) 
Heartbeat CPU 0 instructions: 78000003 cycles: 279637103 heartbeat IPC: 0.254334 cumulative IPC: 0.248531 (Simulation time: 4 hr 21 min 21 sec) 
Heartbeat CPU 0 instructions: 79000002 cycles: 283546574 heartbeat IPC: 0.255789 cumulative IPC: 0.248634 (Simulation time: 4 hr 23 min 57 sec) 
Heartbeat CPU 0 instructions: 80000000 cycles: 287445223 heartbeat IPC: 0.256499 cumulative IPC: 0.248743 (Simulation time: 4 hr 26 min 42 sec) 
Heartbeat CPU 0 instructions: 81000002 cycles: 291675622 heartbeat IPC: 0.236385 cumulative IPC: 0.24856 (Simulation time: 4 hr 29 min 24 sec) 
Heartbeat CPU 0 instructions: 82000000 cycles: 296303918 heartbeat IPC: 0.216062 cumulative IPC: 0.248041 (Simulation time: 4 hr 31 min 51 sec) 
Heartbeat CPU 0 instructions: 83000002 cycles: 300133415 heartbeat IPC: 0.261131 cumulative IPC: 0.248212 (Simulation time: 4 hr 33 min 58 sec) 
Heartbeat CPU 0 instructions: 84000000 cycles: 304084178 heartbeat IPC: 0.253115 cumulative IPC: 0.248277 (Simulation time: 4 hr 35 min 55 sec) 
Heartbeat CPU 0 instructions: 85000000 cycles: 308058441 heartbeat IPC: 0.251619 cumulative IPC: 0.248321 (Simulation time: 4 hr 37 min 45 sec) 
Heartbeat CPU 0 instructions: 86000000 cycles: 312215681 heartbeat IPC: 0.240544 cumulative IPC: 0.248215 (Simulation time: 4 hr 39 min 35 sec) 
Heartbeat CPU 0 instructions: 87000001 cycles: 315881545 heartbeat IPC: 0.272787 cumulative IPC: 0.248506 (Simulation time: 4 hr 41 min 17 sec) 
Heartbeat CPU 0 instructions: 88000000 cycles: 319756072 heartbeat IPC: 0.258096 cumulative IPC: 0.248624 (Simulation time: 4 hr 42 min 50 sec) 
Heartbeat CPU 0 instructions: 89000003 cycles: 323294386 heartbeat IPC: 0.282621 cumulative IPC: 0.249004 (Simulation time: 4 hr 44 min 13 sec) 
Heartbeat CPU 0 instructions: 90000000 cycles: 327160516 heartbeat IPC: 0.258656 cumulative IPC: 0.24912 (Simulation time: 4 hr 45 min 32 sec) 
Heartbeat CPU 0 instructions: 91000001 cycles: 330809418 heartbeat IPC: 0.274055 cumulative IPC: 0.2494 (Simulation time: 4 hr 46 min 48 sec) 
Heartbeat CPU 0 instructions: 92000000 cycles: 334782876 heartbeat IPC: 0.25167 cumulative IPC: 0.249427 (Simulation time: 4 hr 47 min 57 sec) 
Heartbeat CPU 0 instructions: 93000001 cycles: 339240418 heartbeat IPC: 0.224339 cumulative IPC: 0.249092 (Simulation time: 4 hr 49 min 9 sec) 
Heartbeat CPU 0 instructions: 94000001 cycles: 342935464 heartbeat IPC: 0.270633 cumulative IPC: 0.249328 (Simulation time: 4 hr 50 min 8 sec) 
Heartbeat CPU 0 instructions: 95000000 cycles: 346901150 heartbeat IPC: 0.252163 cumulative IPC: 0.249361 (Simulation time: 4 hr 51 min 11 sec) 
Heartbeat CPU 0 instructions: 96000000 cycles: 351322164 heartbeat IPC: 0.226192 cumulative IPC: 0.249064 (Simulation time: 4 hr 52 min 1 sec) 
Heartbeat CPU 0 instructions: 97000000 cycles: 355062382 heartbeat IPC: 0.267364 cumulative IPC: 0.24926 (Simulation time: 4 hr 52 min 43 sec) 
Heartbeat CPU 0 instructions: 98000000 cycles: 359419504 heartbeat IPC: 0.229509 cumulative IPC: 0.249017 (Simulation time: 4 hr 53 min 27 sec) 
Heartbeat CPU 0 instructions: 99000000 cycles: 364039905 heartbeat IPC: 0.216431 cumulative IPC: 0.248596 (Simulation time: 4 hr 54 min 5 sec) 
Heartbeat CPU 0 instructions: 100000000 cycles: 368224047 heartbeat IPC: 0.238998 cumulative IPC: 0.248485 (Simulation time: 4 hr 54 min 39 sec) 
Heartbeat CPU 0 instructions: 101000003 cycles: 372179973 heartbeat IPC: 0.252786 cumulative IPC: 0.248532 (Simulation time: 4 hr 55 min 7 sec) 
Heartbeat CPU 0 instructions: 102000003 cycles: 376502775 heartbeat IPC: 0.231331 cumulative IPC: 0.248331 (Simulation time: 4 hr 55 min 32 sec) 
Heartbeat CPU 0 instructions: 103000000 cycles: 380454719 heartbeat IPC: 0.253039 cumulative IPC: 0.248381 (Simulation time: 4 hr 55 min 54 sec) 
Heartbeat CPU 0 instructions: 104000000 cycles: 384170494 heartbeat IPC: 0.269123 cumulative IPC: 0.248585 (Simulation time: 4 hr 56 min 16 sec) 
Heartbeat CPU 0 instructions: 105000003 cycles: 388289797 heartbeat IPC: 0.24276 cumulative IPC: 0.248522 (Simulation time: 4 hr 56 min 35 sec) 
Heartbeat CPU 0 instructions: 106000001 cycles: 391862065 heartbeat IPC: 0.279934 cumulative IPC: 0.248813 (Simulation time: 4 hr 56 min 52 sec) 
Heartbeat CPU 0 instructions: 107000000 cycles: 395948720 heartbeat IPC: 0.244699 cumulative IPC: 0.24877 (Simulation time: 4 hr 57 min 11 sec) 
Heartbeat CPU 0 instructions: 108000000 cycles: 399980068 heartbeat IPC: 0.248056 cumulative IPC: 0.248762 (Simulation time: 4 hr 57 min 28 sec) 
Heartbeat CPU 0 instructions: 109000000 cycles: 404410536 heartbeat IPC: 0.22571 cumulative IPC: 0.248506 (Simulation time: 4 hr 57 min 44 sec) 
Heartbeat CPU 0 instructions: 110000000 cycles: 408179381 heartbeat IPC: 0.265333 cumulative IPC: 0.248664 (Simulation time: 4 hr 58 min 0 sec) 
Finished CPU 0 instructions: 100000000 cycles: 402149572 cummulative IPC: 0.248664 (Simulation time: 4 hr 58 min 0 sec) 

ChampSim completed all CPUs

Region of Interest Statistics

CPU 0 cummulative IPC: 0.248664 instructions: 100000000 cycles: 402149572
LLC TOTAL     ACCESS:    4309170  HIT:     852243  MISS:    3456927
LLC LOAD      ACCESS:    1524177  HIT:     320878  MISS:    1203299
LLC RFO       ACCESS:     247544  HIT:      81768  MISS:     165776
LLC PREFETCH  ACCESS:    1531430  HIT:     112721  MISS:    1418709
LLC WRITEBACK ACCESS:    1006019  HIT:     336876  MISS:     669143
