
*** ChampSim Multicore Out-of-Order Simulator ***

Warmup Instructions: 10000000
Simulation Instructions: 100000000
Configuration: 2
Number of CPUs: 1
LLC sets: 2048
LLC ways: 16
Off-chip DRAM Channels: 1 Width: 64-bit Data Rate: 1600 MT/s

CPU 0 runs /datasets/cs240c-wi22-a00-public/data/Assignment2-gz/omnetpp_17B.trace.gz
CPU 0 L1D next line prefetcher
CPU 0 L2C IP-based stride prefetcher
config 2, num_core 1, llc_sets 2048
Heartbeat CPU 0 instructions: 1000000 cycles: 559596 heartbeat IPC: 1.787 cumulative IPC: 1.787 (Simulation time: 0 hr 2 min 18 sec) 
Heartbeat CPU 0 instructions: 2000002 cycles: 1134028 heartbeat IPC: 1.74085 cumulative IPC: 1.76363 (Simulation time: 0 hr 4 min 34 sec) 
Heartbeat CPU 0 instructions: 3000001 cycles: 1769367 heartbeat IPC: 1.57396 cumulative IPC: 1.69552 (Simulation time: 0 hr 6 min 48 sec) 
Heartbeat CPU 0 instructions: 4000000 cycles: 2334691 heartbeat IPC: 1.7689 cumulative IPC: 1.71329 (Simulation time: 0 hr 9 min 8 sec) 
Heartbeat CPU 0 instructions: 5000002 cycles: 2894207 heartbeat IPC: 1.78726 cumulative IPC: 1.72759 (Simulation time: 0 hr 11 min 20 sec) 
Heartbeat CPU 0 instructions: 6000000 cycles: 3473182 heartbeat IPC: 1.72719 cumulative IPC: 1.72752 (Simulation time: 0 hr 13 min 37 sec) 
Heartbeat CPU 0 instructions: 7000000 cycles: 4038148 heartbeat IPC: 1.77002 cumulative IPC: 1.73347 (Simulation time: 0 hr 15 min 42 sec) 
Heartbeat CPU 0 instructions: 8000000 cycles: 4699882 heartbeat IPC: 1.51118 cumulative IPC: 1.70217 (Simulation time: 0 hr 17 min 16 sec) 
Heartbeat CPU 0 instructions: 9000000 cycles: 5361690 heartbeat IPC: 1.51101 cumulative IPC: 1.67858 (Simulation time: 0 hr 19 min 4 sec) 
Heartbeat CPU 0 instructions: 10000001 cycles: 6023260 heartbeat IPC: 1.51156 cumulative IPC: 1.66023 (Simulation time: 0 hr 20 min 50 sec) 

Warmup complete CPU 0 instructions: 10000001 cycles: 6023260 (Simulation time: 0 hr 20 min 50 sec) 

Heartbeat CPU 0 instructions: 11000001 cycles: 7068076 heartbeat IPC: 0.957106 cumulative IPC: 0.957106 (Simulation time: 0 hr 22 min 33 sec) 
Heartbeat CPU 0 instructions: 12000000 cycles: 8112639 heartbeat IPC: 0.957337 cumulative IPC: 0.957222 (Simulation time: 0 hr 24 min 20 sec) 
Heartbeat CPU 0 instructions: 13000000 cycles: 9182571 heartbeat IPC: 0.934639 cumulative IPC: 0.949574 (Simulation time: 0 hr 25 min 58 sec) 
Heartbeat CPU 0 instructions: 14000001 cycles: 10226952 heartbeat IPC: 0.957506 cumulative IPC: 0.951545 (Simulation time: 0 hr 27 min 32 sec) 
Heartbeat CPU 0 instructions: 15000000 cycles: 11271180 heartbeat IPC: 0.957644 cumulative IPC: 0.952758 (Simulation time: 0 hr 29 min 9 sec) 
Heartbeat CPU 0 instructions: 16000000 cycles: 12315347 heartbeat IPC: 0.957701 cumulative IPC: 0.953579 (Simulation time: 0 hr 30 min 48 sec) 
Heartbeat CPU 0 instructions: 17000000 cycles: 13360904 heartbeat IPC: 0.956428 cumulative IPC: 0.953985 (Simulation time: 0 hr 32 min 24 sec) 
Heartbeat CPU 0 instructions: 18000001 cycles: 14402248 heartbeat IPC: 0.960298 cumulative IPC: 0.954769 (Simulation time: 0 hr 33 min 58 sec) 
Heartbeat CPU 0 instructions: 19000002 cycles: 15437058 heartbeat IPC: 0.966362 cumulative IPC: 0.956044 (Simulation time: 0 hr 35 min 51 sec) 
Heartbeat CPU 0 instructions: 20000000 cycles: 19047357 heartbeat IPC: 0.276985 cumulative IPC: 0.767807 (Simulation time: 0 hr 38 min 7 sec) 
Heartbeat CPU 0 instructions: 21000000 cycles: 21736232 heartbeat IPC: 0.371903 cumulative IPC: 0.700058 (Simulation time: 0 hr 40 min 50 sec) 
Heartbeat CPU 0 instructions: 22000002 cycles: 23674205 heartbeat IPC: 0.516004 cumulative IPC: 0.67985 (Simulation time: 0 hr 43 min 3 sec) 
Heartbeat CPU 0 instructions: 23000000 cycles: 27284445 heartbeat IPC: 0.276989 cumulative IPC: 0.611443 (Simulation time: 0 hr 45 min 28 sec) 
Heartbeat CPU 0 instructions: 24000000 cycles: 30887209 heartbeat IPC: 0.277565 cumulative IPC: 0.563064 (Simulation time: 0 hr 47 min 49 sec) 
Heartbeat CPU 0 instructions: 25000001 cycles: 33763894 heartbeat IPC: 0.347623 cumulative IPC: 0.540723 (Simulation time: 0 hr 49 min 51 sec) 
Heartbeat CPU 0 instructions: 26000001 cycles: 35531836 heartbeat IPC: 0.565629 cumulative IPC: 0.542215 (Simulation time: 0 hr 51 min 42 sec) 
Heartbeat CPU 0 instructions: 27000000 cycles: 39130889 heartbeat IPC: 0.277851 cumulative IPC: 0.513477 (Simulation time: 0 hr 53 min 37 sec) 
Heartbeat CPU 0 instructions: 28000000 cycles: 42744634 heartbeat IPC: 0.276721 cumulative IPC: 0.490178 (Simulation time: 0 hr 55 min 31 sec) 
Heartbeat CPU 0 instructions: 29000000 cycles: 45820042 heartbeat IPC: 0.32516 cumulative IPC: 0.477426 (Simulation time: 0 hr 57 min 12 sec) 
Heartbeat CPU 0 instructions: 30000000 cycles: 47379702 heartbeat IPC: 0.641165 cumulative IPC: 0.483601 (Simulation time: 0 hr 58 min 43 sec) 
Heartbeat CPU 0 instructions: 31000000 cycles: 50969070 heartbeat IPC: 0.278601 cumulative IPC: 0.467229 (Simulation time: 1 hr 0 min 44 sec) 
Heartbeat CPU 0 instructions: 32000000 cycles: 54573699 heartbeat IPC: 0.277421 cumulative IPC: 0.453137 (Simulation time: 1 hr 2 min 32 sec) 
Heartbeat CPU 0 instructions: 33000001 cycles: 57868864 heartbeat IPC: 0.303475 cumulative IPC: 0.443625 (Simulation time: 1 hr 4 min 15 sec) 
Heartbeat CPU 0 instructions: 34000000 cycles: 59208118 heartbeat IPC: 0.746684 cumulative IPC: 0.451256 (Simulation time: 1 hr 5 min 40 sec) 
Heartbeat CPU 0 instructions: 35000003 cycles: 62803322 heartbeat IPC: 0.278149 cumulative IPC: 0.440295 (Simulation time: 1 hr 8 min 1 sec) 
Heartbeat CPU 0 instructions: 36000000 cycles: 66440206 heartbeat IPC: 0.27496 cumulative IPC: 0.430343 (Simulation time: 1 hr 10 min 8 sec) 
Heartbeat CPU 0 instructions: 37000001 cycles: 69611175 heartbeat IPC: 0.315361 cumulative IPC: 0.424609 (Simulation time: 1 hr 11 min 55 sec) 
Heartbeat CPU 0 instructions: 38000000 cycles: 71081584 heartbeat IPC: 0.680082 cumulative IPC: 0.430383 (Simulation time: 1 hr 13 min 23 sec) 
Heartbeat CPU 0 instructions: 39000000 cycles: 74682524 heartbeat IPC: 0.277705 cumulative IPC: 0.422376 (Simulation time: 1 hr 15 min 30 sec) 
Heartbeat CPU 0 instructions: 40000000 cycles: 78294494 heartbeat IPC: 0.276857 cumulative IPC: 0.415103 (Simulation time: 1 hr 17 min 28 sec) 
Heartbeat CPU 0 instructions: 41000002 cycles: 81341267 heartbeat IPC: 0.328217 cumulative IPC: 0.411588 (Simulation time: 1 hr 19 min 15 sec) 
Heartbeat CPU 0 instructions: 42000000 cycles: 82924972 heartbeat IPC: 0.631429 cumulative IPC: 0.416116 (Simulation time: 1 hr 21 min 7 sec) 
Heartbeat CPU 0 instructions: 43000003 cycles: 88996487 heartbeat IPC: 0.164704 cumulative IPC: 0.397719 (Simulation time: 1 hr 23 min 28 sec) 
Heartbeat CPU 0 instructions: 44000000 cycles: 90043221 heartbeat IPC: 0.95535 cumulative IPC: 0.404666 (Simulation time: 1 hr 24 min 55 sec) 
Heartbeat CPU 0 instructions: 45000003 cycles: 91086186 heartbeat IPC: 0.958808 cumulative IPC: 0.41146 (Simulation time: 1 hr 26 min 17 sec) 
Heartbeat CPU 0 instructions: 46000001 cycles: 92129383 heartbeat IPC: 0.95859 cumulative IPC: 0.418089 (Simulation time: 1 hr 27 min 48 sec) 
Heartbeat CPU 0 instructions: 47000001 cycles: 93173938 heartbeat IPC: 0.957345 cumulative IPC: 0.424552 (Simulation time: 1 hr 29 min 9 sec) 
Heartbeat CPU 0 instructions: 48000000 cycles: 94217136 heartbeat IPC: 0.95859 cumulative IPC: 0.430869 (Simulation time: 1 hr 30 min 30 sec) 
Heartbeat CPU 0 instructions: 49000000 cycles: 95258926 heartbeat IPC: 0.959886 cumulative IPC: 0.437045 (Simulation time: 1 hr 31 min 56 sec) 
Heartbeat CPU 0 instructions: 50000000 cycles: 96301725 heartbeat IPC: 0.958958 cumulative IPC: 0.443074 (Simulation time: 1 hr 33 min 20 sec) 
Heartbeat CPU 0 instructions: 51000002 cycles: 97344633 heartbeat IPC: 0.958859 cumulative IPC: 0.448964 (Simulation time: 1 hr 34 min 38 sec) 
Heartbeat CPU 0 instructions: 52000000 cycles: 98388892 heartbeat IPC: 0.957615 cumulative IPC: 0.454715 (Simulation time: 1 hr 35 min 58 sec) 
Heartbeat CPU 0 instructions: 53000001 cycles: 99431679 heartbeat IPC: 0.95897 cumulative IPC: 0.460344 (Simulation time: 1 hr 37 min 36 sec) 
Heartbeat CPU 0 instructions: 54000002 cycles: 100499934 heartbeat IPC: 0.936107 cumulative IPC: 0.465723 (Simulation time: 1 hr 39 min 10 sec) 
Heartbeat CPU 0 instructions: 55000003 cycles: 101540339 heartbeat IPC: 0.961165 cumulative IPC: 0.47112 (Simulation time: 1 hr 40 min 35 sec) 
Heartbeat CPU 0 instructions: 56000000 cycles: 103965491 heartbeat IPC: 0.412344 cumulative IPC: 0.469665 (Simulation time: 1 hr 42 min 7 sec) 
Heartbeat CPU 0 instructions: 57000003 cycles: 106160372 heartbeat IPC: 0.455607 cumulative IPC: 0.469356 (Simulation time: 1 hr 43 min 54 sec) 
Heartbeat CPU 0 instructions: 58000000 cycles: 109772161 heartbeat IPC: 0.27687 cumulative IPC: 0.462655 (Simulation time: 1 hr 45 min 49 sec) 
Heartbeat CPU 0 instructions: 59000003 cycles: 113381883 heartbeat IPC: 0.27703 cumulative IPC: 0.456414 (Simulation time: 1 hr 47 min 43 sec) 
Heartbeat CPU 0 instructions: 60000000 cycles: 115999663 heartbeat IPC: 0.382002 cumulative IPC: 0.454643 (Simulation time: 1 hr 49 min 17 sec) 
Heartbeat CPU 0 instructions: 61000001 cycles: 118015121 heartbeat IPC: 0.496166 cumulative IPC: 0.45539 (Simulation time: 1 hr 50 min 52 sec) 
Heartbeat CPU 0 instructions: 62000001 cycles: 121633975 heartbeat IPC: 0.276331 cumulative IPC: 0.449785 (Simulation time: 1 hr 52 min 40 sec) 
Heartbeat CPU 0 instructions: 63000000 cycles: 125244930 heartbeat IPC: 0.276935 cumulative IPC: 0.44455 (Simulation time: 1 hr 54 min 32 sec) 
Heartbeat CPU 0 instructions: 64000000 cycles: 128046661 heartbeat IPC: 0.356922 cumulative IPC: 0.442538 (Simulation time: 1 hr 56 min 25 sec) 
Heartbeat CPU 0 instructions: 65000000 cycles: 129857460 heartbeat IPC: 0.552242 cumulative IPC: 0.444142 (Simulation time: 1 hr 58 min 2 sec) 
Heartbeat CPU 0 instructions: 66000000 cycles: 133461403 heartbeat IPC: 0.277474 cumulative IPC: 0.439429 (Simulation time: 2 hr 0 min 6 sec) 
Heartbeat CPU 0 instructions: 67000001 cycles: 137083768 heartbeat IPC: 0.276063 cumulative IPC: 0.434914 (Simulation time: 2 hr 2 min 6 sec) 
Heartbeat CPU 0 instructions: 68000000 cycles: 140112875 heartbeat IPC: 0.33013 cumulative IPC: 0.432547 (Simulation time: 2 hr 4 min 2 sec) 
Heartbeat CPU 0 instructions: 69000001 cycles: 141715495 heartbeat IPC: 0.623979 cumulative IPC: 0.434807 (Simulation time: 2 hr 5 min 38 sec) 
Heartbeat CPU 0 instructions: 70000001 cycles: 145312934 heartbeat IPC: 0.277976 cumulative IPC: 0.430757 (Simulation time: 2 hr 7 min 43 sec) 
Heartbeat CPU 0 instructions: 71000001 cycles: 148908552 heartbeat IPC: 0.278116 cumulative IPC: 0.426916 (Simulation time: 2 hr 9 min 59 sec) 
Heartbeat CPU 0 instructions: 72000000 cycles: 151944372 heartbeat IPC: 0.3294 cumulative IPC: 0.424887 (Simulation time: 2 hr 12 min 32 sec) 
Heartbeat CPU 0 instructions: 73000000 cycles: 153558505 heartbeat IPC: 0.619528 cumulative IPC: 0.427017 (Simulation time: 2 hr 14 min 27 sec) 
Heartbeat CPU 0 instructions: 74000003 cycles: 157177914 heartbeat IPC: 0.276289 cumulative IPC: 0.423407 (Simulation time: 2 hr 16 min 50 sec) 
Heartbeat CPU 0 instructions: 75000001 cycles: 160782725 heartbeat IPC: 0.277407 cumulative IPC: 0.420007 (Simulation time: 2 hr 19 min 0 sec) 
Heartbeat CPU 0 instructions: 76000000 cycles: 163689285 heartbeat IPC: 0.344049 cumulative IPC: 0.418606 (Simulation time: 2 hr 21 min 3 sec) 
Heartbeat CPU 0 instructions: 77000001 cycles: 165418671 heartbeat IPC: 0.578241 cumulative IPC: 0.420338 (Simulation time: 2 hr 23 min 3 sec) 
Heartbeat CPU 0 instructions: 78000000 cycles: 169026738 heartbeat IPC: 0.277156 cumulative IPC: 0.417169 (Simulation time: 2 hr 25 min 32 sec) 
Heartbeat CPU 0 instructions: 79000000 cycles: 172810202 heartbeat IPC: 0.264308 cumulative IPC: 0.413701 (Simulation time: 2 hr 27 min 49 sec) 
Heartbeat CPU 0 instructions: 80000000 cycles: 174755176 heartbeat IPC: 0.514146 cumulative IPC: 0.414859 (Simulation time: 2 hr 30 min 18 sec) 
Heartbeat CPU 0 instructions: 81000001 cycles: 177441532 heartbeat IPC: 0.372252 cumulative IPC: 0.414192 (Simulation time: 2 hr 32 min 39 sec) 
Heartbeat CPU 0 instructions: 82000000 cycles: 181069685 heartbeat IPC: 0.275622 cumulative IPC: 0.411319 (Simulation time: 2 hr 35 min 2 sec) 
Heartbeat CPU 0 instructions: 83000000 cycles: 184671145 heartbeat IPC: 0.277665 cumulative IPC: 0.408625 (Simulation time: 2 hr 37 min 47 sec) 
Heartbeat CPU 0 instructions: 84000000 cycles: 186575582 heartbeat IPC: 0.52509 cumulative IPC: 0.409853 (Simulation time: 2 hr 40 min 4 sec) 
Heartbeat CPU 0 instructions: 85000003 cycles: 189283851 heartbeat IPC: 0.369241 cumulative IPC: 0.409253 (Simulation time: 2 hr 42 min 24 sec) 
Heartbeat CPU 0 instructions: 86000001 cycles: 192900650 heartbeat IPC: 0.276487 cumulative IPC: 0.406684 (Simulation time: 2 hr 44 min 52 sec) 
Heartbeat CPU 0 instructions: 87000000 cycles: 196504382 heartbeat IPC: 0.27749 cumulative IPC: 0.40424 (Simulation time: 2 hr 47 min 8 sec) 
Heartbeat CPU 0 instructions: 88000000 cycles: 198264218 heartbeat IPC: 0.568235 cumulative IPC: 0.405741 (Simulation time: 2 hr 48 min 56 sec) 
Heartbeat CPU 0 instructions: 89000000 cycles: 203586867 heartbeat IPC: 0.187876 cumulative IPC: 0.399871 (Simulation time: 2 hr 51 min 46 sec) 
Heartbeat CPU 0 instructions: 90000002 cycles: 204630276 heartbeat IPC: 0.958399 cumulative IPC: 0.402806 (Simulation time: 2 hr 53 min 47 sec) 
Heartbeat CPU 0 instructions: 91000001 cycles: 205674669 heartbeat IPC: 0.957493 cumulative IPC: 0.405707 (Simulation time: 2 hr 55 min 40 sec) 
Heartbeat CPU 0 instructions: 92000000 cycles: 206718315 heartbeat IPC: 0.958178 cumulative IPC: 0.40858 (Simulation time: 2 hr 57 min 35 sec) 
Heartbeat CPU 0 instructions: 93000002 cycles: 207762655 heartbeat IPC: 0.957545 cumulative IPC: 0.411422 (Simulation time: 2 hr 59 min 11 sec) 
Heartbeat CPU 0 instructions: 94000001 cycles: 208806502 heartbeat IPC: 0.957994 cumulative IPC: 0.414235 (Simulation time: 3 hr 0 min 50 sec) 
Heartbeat CPU 0 instructions: 95000000 cycles: 209850787 heartbeat IPC: 0.957592 cumulative IPC: 0.417019 (Simulation time: 3 hr 2 min 32 sec) 
Heartbeat CPU 0 instructions: 96000000 cycles: 210895767 heartbeat IPC: 0.956956 cumulative IPC: 0.419773 (Simulation time: 3 hr 4 min 11 sec) 
Heartbeat CPU 0 instructions: 97000002 cycles: 211966659 heartbeat IPC: 0.933803 cumulative IPC: 0.422446 (Simulation time: 3 hr 5 min 43 sec) 
Heartbeat CPU 0 instructions: 98000000 cycles: 213012599 heartbeat IPC: 0.956076 cumulative IPC: 0.425143 (Simulation time: 3 hr 7 min 16 sec) 
Heartbeat CPU 0 instructions: 99000003 cycles: 214051026 heartbeat IPC: 0.962998 cumulative IPC: 0.427828 (Simulation time: 3 hr 8 min 52 sec) 
Heartbeat CPU 0 instructions: 100000000 cycles: 215087500 heartbeat IPC: 0.964807 cumulative IPC: 0.43049 (Simulation time: 3 hr 10 min 44 sec) 
Heartbeat CPU 0 instructions: 101000001 cycles: 216128666 heartbeat IPC: 0.960463 cumulative IPC: 0.433116 (Simulation time: 3 hr 12 min 42 sec) 
Heartbeat CPU 0 instructions: 102000001 cycles: 219670626 heartbeat IPC: 0.28233 cumulative IPC: 0.430616 (Simulation time: 3 hr 14 min 55 sec) 
Heartbeat CPU 0 instructions: 103000001 cycles: 221104766 heartbeat IPC: 0.697282 cumulative IPC: 0.432394 (Simulation time: 3 hr 16 min 50 sec) 
Heartbeat CPU 0 instructions: 104000000 cycles: 224355710 heartbeat IPC: 0.307603 cumulative IPC: 0.430536 (Simulation time: 3 hr 19 min 14 sec) 
Heartbeat CPU 0 instructions: 105000000 cycles: 227957026 heartbeat IPC: 0.277676 cumulative IPC: 0.428056 (Simulation time: 3 hr 21 min 29 sec) 
Heartbeat CPU 0 instructions: 106000000 cycles: 231487926 heartbeat IPC: 0.283214 cumulative IPC: 0.425787 (Simulation time: 3 hr 23 min 45 sec) 
Heartbeat CPU 0 instructions: 107000001 cycles: 233087684 heartbeat IPC: 0.625095 cumulative IPC: 0.427192 (Simulation time: 3 hr 25 min 44 sec) 
Heartbeat CPU 0 instructions: 108000000 cycles: 236178191 heartbeat IPC: 0.323571 cumulative IPC: 0.4258 (Simulation time: 3 hr 27 min 57 sec) 
Heartbeat CPU 0 instructions: 109000000 cycles: 239791804 heartbeat IPC: 0.276731 cumulative IPC: 0.423496 (Simulation time: 3 hr 30 min 19 sec) 
Heartbeat CPU 0 instructions: 110000000 cycles: 243372106 heartbeat IPC: 0.279306 cumulative IPC: 0.421321 (Simulation time: 3 hr 32 min 53 sec) 
Finished CPU 0 instructions: 100000003 cycles: 237348851 cummulative IPC: 0.421321 (Simulation time: 3 hr 32 min 53 sec) 

ChampSim completed all CPUs

Region of Interest Statistics

CPU 0 cummulative IPC: 0.421321 instructions: 100000003 cycles: 237348851
LLC TOTAL     ACCESS:    3287827  HIT:     519635  MISS:    2768192
LLC LOAD      ACCESS:    1581384  HIT:      18089  MISS:    1563295
LLC RFO       ACCESS:       5220  HIT:       2828  MISS:       2392
LLC PREFETCH  ACCESS:    1684375  HIT:     494756  MISS:    1189619
LLC WRITEBACK ACCESS:      16848  HIT:       3962  MISS:      12886
