
*** ChampSim Multicore Out-of-Order Simulator ***

Warmup Instructions: 10000000
Simulation Instructions: 100000000
Configuration: 2
Number of CPUs: 1
LLC sets: 2048
LLC ways: 16
Off-chip DRAM Channels: 1 Width: 64-bit Data Rate: 1600 MT/s

CPU 0 runs /datasets/cs240c-wi22-a00-public/data/Assignment2-gz/perlbench_53B.trace.gz
CPU 0 L1D next line prefetcher
CPU 0 L2C IP-based stride prefetcher
config 2, num_core 1, llc_sets 2048
Heartbeat CPU 0 instructions: 1000000 cycles: 616120 heartbeat IPC: 1.62306 cumulative IPC: 1.62306 (Simulation time: 0 hr 2 min 46 sec) 
Heartbeat CPU 0 instructions: 2000001 cycles: 1253421 heartbeat IPC: 1.56912 cumulative IPC: 1.59563 (Simulation time: 0 hr 5 min 25 sec) 
Heartbeat CPU 0 instructions: 3000002 cycles: 1908999 heartbeat IPC: 1.52537 cumulative IPC: 1.57151 (Simulation time: 0 hr 8 min 4 sec) 
Heartbeat CPU 0 instructions: 4000000 cycles: 2524862 heartbeat IPC: 1.62373 cumulative IPC: 1.58424 (Simulation time: 0 hr 10 min 40 sec) 
Heartbeat CPU 0 instructions: 5000001 cycles: 3153185 heartbeat IPC: 1.59154 cumulative IPC: 1.5857 (Simulation time: 0 hr 13 min 19 sec) 
Heartbeat CPU 0 instructions: 6000001 cycles: 3768814 heartbeat IPC: 1.62435 cumulative IPC: 1.59201 (Simulation time: 0 hr 15 min 54 sec) 
Heartbeat CPU 0 instructions: 7000002 cycles: 4392389 heartbeat IPC: 1.60366 cumulative IPC: 1.59367 (Simulation time: 0 hr 18 min 29 sec) 
Heartbeat CPU 0 instructions: 8000000 cycles: 5002885 heartbeat IPC: 1.63801 cumulative IPC: 1.59908 (Simulation time: 0 hr 21 min 5 sec) 
Heartbeat CPU 0 instructions: 9000000 cycles: 5654655 heartbeat IPC: 1.53428 cumulative IPC: 1.59161 (Simulation time: 0 hr 23 min 47 sec) 
Heartbeat CPU 0 instructions: 10000001 cycles: 6290273 heartbeat IPC: 1.57327 cumulative IPC: 1.58976 (Simulation time: 0 hr 26 min 22 sec) 

Warmup complete CPU 0 instructions: 10000001 cycles: 6290273 (Simulation time: 0 hr 26 min 22 sec) 

Heartbeat CPU 0 instructions: 11000000 cycles: 9162239 heartbeat IPC: 0.348193 cumulative IPC: 0.348193 (Simulation time: 0 hr 29 min 18 sec) 
Heartbeat CPU 0 instructions: 12000000 cycles: 12037563 heartbeat IPC: 0.347787 cumulative IPC: 0.34799 (Simulation time: 0 hr 32 min 18 sec) 
Heartbeat CPU 0 instructions: 13000000 cycles: 14395862 heartbeat IPC: 0.424034 cumulative IPC: 0.370115 (Simulation time: 0 hr 35 min 7 sec) 
Heartbeat CPU 0 instructions: 14000000 cycles: 16911717 heartbeat IPC: 0.397479 cumulative IPC: 0.376597 (Simulation time: 0 hr 38 min 13 sec) 
Heartbeat CPU 0 instructions: 15000001 cycles: 19667886 heartbeat IPC: 0.362823 cumulative IPC: 0.373759 (Simulation time: 0 hr 41 min 13 sec) 
Heartbeat CPU 0 instructions: 16000000 cycles: 22332109 heartbeat IPC: 0.375344 cumulative IPC: 0.374022 (Simulation time: 0 hr 44 min 16 sec) 
Heartbeat CPU 0 instructions: 17000001 cycles: 25007075 heartbeat IPC: 0.373837 cumulative IPC: 0.373996 (Simulation time: 0 hr 47 min 18 sec) 
Heartbeat CPU 0 instructions: 18000002 cycles: 27858863 heartbeat IPC: 0.350658 cumulative IPC: 0.37091 (Simulation time: 0 hr 50 min 45 sec) 
Heartbeat CPU 0 instructions: 19000000 cycles: 30681326 heartbeat IPC: 0.3543 cumulative IPC: 0.368988 (Simulation time: 0 hr 53 min 40 sec) 
Heartbeat CPU 0 instructions: 20000000 cycles: 33534658 heartbeat IPC: 0.350467 cumulative IPC: 0.367048 (Simulation time: 0 hr 56 min 47 sec) 
Heartbeat CPU 0 instructions: 21000000 cycles: 35893886 heartbeat IPC: 0.423867 cumulative IPC: 0.371576 (Simulation time: 1 hr 0 min 15 sec) 
Heartbeat CPU 0 instructions: 22000000 cycles: 37971076 heartbeat IPC: 0.48142 cumulative IPC: 0.378778 (Simulation time: 1 hr 3 min 12 sec) 
Heartbeat CPU 0 instructions: 23000001 cycles: 39902370 heartbeat IPC: 0.517788 cumulative IPC: 0.386766 (Simulation time: 1 hr 6 min 12 sec) 
Heartbeat CPU 0 instructions: 24000000 cycles: 42300133 heartbeat IPC: 0.417055 cumulative IPC: 0.388782 (Simulation time: 1 hr 9 min 48 sec) 
Heartbeat CPU 0 instructions: 25000000 cycles: 44312042 heartbeat IPC: 0.49704 cumulative IPC: 0.394511 (Simulation time: 1 hr 12 min 26 sec) 
Heartbeat CPU 0 instructions: 26000001 cycles: 46296576 heartbeat IPC: 0.503897 cumulative IPC: 0.399937 (Simulation time: 1 hr 15 min 3 sec) 
Heartbeat CPU 0 instructions: 27000002 cycles: 48591201 heartbeat IPC: 0.435802 cumulative IPC: 0.401882 (Simulation time: 1 hr 18 min 0 sec) 
Heartbeat CPU 0 instructions: 28000000 cycles: 51157156 heartbeat IPC: 0.389718 cumulative IPC: 0.401187 (Simulation time: 1 hr 21 min 10 sec) 
Heartbeat CPU 0 instructions: 29000000 cycles: 53476811 heartbeat IPC: 0.431099 cumulative IPC: 0.402657 (Simulation time: 1 hr 24 min 28 sec) 
Heartbeat CPU 0 instructions: 30000000 cycles: 55520188 heartbeat IPC: 0.489386 cumulative IPC: 0.406257 (Simulation time: 1 hr 27 min 28 sec) 
Heartbeat CPU 0 instructions: 31000001 cycles: 57507447 heartbeat IPC: 0.503206 cumulative IPC: 0.410019 (Simulation time: 1 hr 30 min 11 sec) 
Heartbeat CPU 0 instructions: 32000000 cycles: 59505015 heartbeat IPC: 0.500608 cumulative IPC: 0.413419 (Simulation time: 1 hr 33 min 8 sec) 
Heartbeat CPU 0 instructions: 33000003 cycles: 61956558 heartbeat IPC: 0.407908 cumulative IPC: 0.413177 (Simulation time: 1 hr 36 min 1 sec) 
Heartbeat CPU 0 instructions: 34000000 cycles: 64652428 heartbeat IPC: 0.370937 cumulative IPC: 0.411225 (Simulation time: 1 hr 38 min 45 sec) 
Heartbeat CPU 0 instructions: 35000000 cycles: 67201266 heartbeat IPC: 0.392336 cumulative IPC: 0.410435 (Simulation time: 1 hr 41 min 39 sec) 
Heartbeat CPU 0 instructions: 36000000 cycles: 69992083 heartbeat IPC: 0.358318 cumulative IPC: 0.408152 (Simulation time: 1 hr 44 min 48 sec) 
Heartbeat CPU 0 instructions: 37000002 cycles: 72828558 heartbeat IPC: 0.352551 cumulative IPC: 0.405781 (Simulation time: 1 hr 47 min 57 sec) 
Heartbeat CPU 0 instructions: 38000000 cycles: 75700990 heartbeat IPC: 0.348136 cumulative IPC: 0.403396 (Simulation time: 1 hr 50 min 49 sec) 
Heartbeat CPU 0 instructions: 39000001 cycles: 78368187 heartbeat IPC: 0.374926 cumulative IPC: 0.402342 (Simulation time: 1 hr 53 min 52 sec) 
Heartbeat CPU 0 instructions: 40000000 cycles: 80965526 heartbeat IPC: 0.385009 cumulative IPC: 0.40174 (Simulation time: 1 hr 56 min 47 sec) 
Heartbeat CPU 0 instructions: 41000002 cycles: 83829054 heartbeat IPC: 0.34922 cumulative IPC: 0.3998 (Simulation time: 1 hr 59 min 38 sec) 
Heartbeat CPU 0 instructions: 42000000 cycles: 86433016 heartbeat IPC: 0.384029 cumulative IPC: 0.399288 (Simulation time: 2 hr 2 min 45 sec) 
Heartbeat CPU 0 instructions: 43000002 cycles: 89258023 heartbeat IPC: 0.353982 cumulative IPC: 0.397745 (Simulation time: 2 hr 5 min 52 sec) 
Heartbeat CPU 0 instructions: 44000000 cycles: 91924624 heartbeat IPC: 0.375008 cumulative IPC: 0.397037 (Simulation time: 2 hr 8 min 57 sec) 
Heartbeat CPU 0 instructions: 45000001 cycles: 93386101 heartbeat IPC: 0.68424 cumulative IPC: 0.401856 (Simulation time: 2 hr 11 min 22 sec) 
Heartbeat CPU 0 instructions: 46000000 cycles: 95409680 heartbeat IPC: 0.494173 cumulative IPC: 0.403952 (Simulation time: 2 hr 14 min 7 sec) 
Heartbeat CPU 0 instructions: 47000002 cycles: 97325083 heartbeat IPC: 0.522084 cumulative IPC: 0.406438 (Simulation time: 2 hr 16 min 41 sec) 
Heartbeat CPU 0 instructions: 48000000 cycles: 99245298 heartbeat IPC: 0.520774 cumulative IPC: 0.4088 (Simulation time: 2 hr 19 min 26 sec) 
Heartbeat CPU 0 instructions: 49000000 cycles: 101591710 heartbeat IPC: 0.426183 cumulative IPC: 0.409228 (Simulation time: 2 hr 22 min 40 sec) 
Heartbeat CPU 0 instructions: 50000002 cycles: 103455837 heartbeat IPC: 0.536445 cumulative IPC: 0.411668 (Simulation time: 2 hr 25 min 20 sec) 
Heartbeat CPU 0 instructions: 51000000 cycles: 105387079 heartbeat IPC: 0.5178 cumulative IPC: 0.413737 (Simulation time: 2 hr 28 min 8 sec) 
Heartbeat CPU 0 instructions: 52000000 cycles: 107302084 heartbeat IPC: 0.522192 cumulative IPC: 0.415793 (Simulation time: 2 hr 30 min 41 sec) 
Heartbeat CPU 0 instructions: 53000002 cycles: 109252828 heartbeat IPC: 0.512626 cumulative IPC: 0.417628 (Simulation time: 2 hr 33 min 19 sec) 
Heartbeat CPU 0 instructions: 54000000 cycles: 112137608 heartbeat IPC: 0.346646 cumulative IPC: 0.415693 (Simulation time: 2 hr 36 min 11 sec) 
Heartbeat CPU 0 instructions: 55000000 cycles: 114624991 heartbeat IPC: 0.402029 cumulative IPC: 0.415379 (Simulation time: 2 hr 39 min 12 sec) 
Heartbeat CPU 0 instructions: 56000000 cycles: 117423645 heartbeat IPC: 0.357315 cumulative IPC: 0.413917 (Simulation time: 2 hr 42 min 13 sec) 
Heartbeat CPU 0 instructions: 57000001 cycles: 120407675 heartbeat IPC: 0.335118 cumulative IPC: 0.411857 (Simulation time: 2 hr 45 min 15 sec) 
Heartbeat CPU 0 instructions: 58000003 cycles: 123376973 heartbeat IPC: 0.336781 cumulative IPC: 0.409953 (Simulation time: 2 hr 48 min 48 sec) 
Heartbeat CPU 0 instructions: 59000002 cycles: 126198720 heartbeat IPC: 0.35439 cumulative IPC: 0.408645 (Simulation time: 2 hr 51 min 44 sec) 
Heartbeat CPU 0 instructions: 60000000 cycles: 128975094 heartbeat IPC: 0.360181 cumulative IPC: 0.407548 (Simulation time: 2 hr 54 min 34 sec) 
Heartbeat CPU 0 instructions: 61000002 cycles: 131621929 heartbeat IPC: 0.37781 cumulative IPC: 0.40692 (Simulation time: 2 hr 57 min 29 sec) 
Heartbeat CPU 0 instructions: 62000002 cycles: 134324842 heartbeat IPC: 0.369971 cumulative IPC: 0.40614 (Simulation time: 3 hr 0 min 9 sec) 
Heartbeat CPU 0 instructions: 63000001 cycles: 137010473 heartbeat IPC: 0.372352 cumulative IPC: 0.405446 (Simulation time: 3 hr 3 min 1 sec) 
Heartbeat CPU 0 instructions: 64000000 cycles: 139684438 heartbeat IPC: 0.373976 cumulative IPC: 0.404815 (Simulation time: 3 hr 6 min 6 sec) 
Heartbeat CPU 0 instructions: 65000003 cycles: 142337422 heartbeat IPC: 0.376935 cumulative IPC: 0.404272 (Simulation time: 3 hr 8 min 55 sec) 
Heartbeat CPU 0 instructions: 66000001 cycles: 144982373 heartbeat IPC: 0.378078 cumulative IPC: 0.403772 (Simulation time: 3 hr 11 min 48 sec) 
Heartbeat CPU 0 instructions: 67000001 cycles: 147600286 heartbeat IPC: 0.381984 cumulative IPC: 0.403368 (Simulation time: 3 hr 14 min 30 sec) 
Heartbeat CPU 0 instructions: 68000000 cycles: 150288228 heartbeat IPC: 0.372031 cumulative IPC: 0.402783 (Simulation time: 3 hr 17 min 26 sec) 
Heartbeat CPU 0 instructions: 69000001 cycles: 152943898 heartbeat IPC: 0.376553 cumulative IPC: 0.402308 (Simulation time: 3 hr 20 min 35 sec) 
Heartbeat CPU 0 instructions: 70000001 cycles: 155574334 heartbeat IPC: 0.380165 cumulative IPC: 0.401918 (Simulation time: 3 hr 23 min 19 sec) 
Heartbeat CPU 0 instructions: 71000001 cycles: 158296842 heartbeat IPC: 0.367308 cumulative IPC: 0.401298 (Simulation time: 3 hr 26 min 17 sec) 
Heartbeat CPU 0 instructions: 72000000 cycles: 160900887 heartbeat IPC: 0.384018 cumulative IPC: 0.401007 (Simulation time: 3 hr 29 min 20 sec) 
Heartbeat CPU 0 instructions: 73000002 cycles: 163550526 heartbeat IPC: 0.377411 cumulative IPC: 0.40061 (Simulation time: 3 hr 32 min 9 sec) 
Heartbeat CPU 0 instructions: 74000001 cycles: 166242748 heartbeat IPC: 0.37144 cumulative IPC: 0.400119 (Simulation time: 3 hr 34 min 54 sec) 
Heartbeat CPU 0 instructions: 75000001 cycles: 168924168 heartbeat IPC: 0.372937 cumulative IPC: 0.399671 (Simulation time: 3 hr 37 min 27 sec) 
Heartbeat CPU 0 instructions: 76000000 cycles: 171584853 heartbeat IPC: 0.375843 cumulative IPC: 0.399287 (Simulation time: 3 hr 40 min 5 sec) 
Heartbeat CPU 0 instructions: 77000002 cycles: 174276858 heartbeat IPC: 0.371471 cumulative IPC: 0.398841 (Simulation time: 3 hr 42 min 37 sec) 
Heartbeat CPU 0 instructions: 78000000 cycles: 176947216 heartbeat IPC: 0.374481 cumulative IPC: 0.39846 (Simulation time: 3 hr 45 min 11 sec) 
Heartbeat CPU 0 instructions: 79000002 cycles: 179623965 heartbeat IPC: 0.373588 cumulative IPC: 0.398076 (Simulation time: 3 hr 47 min 44 sec) 
Heartbeat CPU 0 instructions: 80000000 cycles: 182274036 heartbeat IPC: 0.377348 cumulative IPC: 0.397764 (Simulation time: 3 hr 50 min 7 sec) 
Heartbeat CPU 0 instructions: 81000000 cycles: 184892670 heartbeat IPC: 0.381878 cumulative IPC: 0.397531 (Simulation time: 3 hr 52 min 24 sec) 
Heartbeat CPU 0 instructions: 82000002 cycles: 187578810 heartbeat IPC: 0.372282 cumulative IPC: 0.397157 (Simulation time: 3 hr 54 min 40 sec) 
Heartbeat CPU 0 instructions: 83000000 cycles: 190231866 heartbeat IPC: 0.376923 cumulative IPC: 0.396865 (Simulation time: 3 hr 56 min 52 sec) 
Heartbeat CPU 0 instructions: 84000000 cycles: 192895025 heartbeat IPC: 0.375494 cumulative IPC: 0.39656 (Simulation time: 3 hr 58 min 56 sec) 
Heartbeat CPU 0 instructions: 85000001 cycles: 195573782 heartbeat IPC: 0.373308 cumulative IPC: 0.396231 (Simulation time: 4 hr 1 min 14 sec) 
Heartbeat CPU 0 instructions: 86000000 cycles: 198068583 heartbeat IPC: 0.400833 cumulative IPC: 0.396291 (Simulation time: 4 hr 3 min 31 sec) 
Heartbeat CPU 0 instructions: 87000000 cycles: 200202445 heartbeat IPC: 0.468634 cumulative IPC: 0.397087 (Simulation time: 4 hr 5 min 12 sec) 
Heartbeat CPU 0 instructions: 88000000 cycles: 202200248 heartbeat IPC: 0.50055 cumulative IPC: 0.398142 (Simulation time: 4 hr 6 min 45 sec) 
Heartbeat CPU 0 instructions: 89000001 cycles: 204278945 heartbeat IPC: 0.481071 cumulative IPC: 0.399013 (Simulation time: 4 hr 8 min 13 sec) 
Heartbeat CPU 0 instructions: 90000000 cycles: 206939344 heartbeat IPC: 0.375883 cumulative IPC: 0.398706 (Simulation time: 4 hr 9 min 56 sec) 
Heartbeat CPU 0 instructions: 91000001 cycles: 209702800 heartbeat IPC: 0.361866 cumulative IPC: 0.398206 (Simulation time: 4 hr 11 min 35 sec) 
Heartbeat CPU 0 instructions: 92000000 cycles: 212391913 heartbeat IPC: 0.371869 cumulative IPC: 0.397862 (Simulation time: 4 hr 12 min 48 sec) 
Heartbeat CPU 0 instructions: 93000000 cycles: 215050586 heartbeat IPC: 0.376127 cumulative IPC: 0.397585 (Simulation time: 4 hr 14 min 0 sec) 
Heartbeat CPU 0 instructions: 94000002 cycles: 217702060 heartbeat IPC: 0.377149 cumulative IPC: 0.397329 (Simulation time: 4 hr 15 min 7 sec) 
Heartbeat CPU 0 instructions: 95000000 cycles: 220325016 heartbeat IPC: 0.381248 cumulative IPC: 0.397132 (Simulation time: 4 hr 16 min 13 sec) 
Heartbeat CPU 0 instructions: 96000000 cycles: 222993385 heartbeat IPC: 0.374761 cumulative IPC: 0.396856 (Simulation time: 4 hr 17 min 21 sec) 
Heartbeat CPU 0 instructions: 97000000 cycles: 225635629 heartbeat IPC: 0.378466 cumulative IPC: 0.396635 (Simulation time: 4 hr 18 min 29 sec) 
Heartbeat CPU 0 instructions: 98000000 cycles: 228259139 heartbeat IPC: 0.381169 cumulative IPC: 0.396452 (Simulation time: 4 hr 19 min 29 sec) 
Heartbeat CPU 0 instructions: 99000002 cycles: 230870973 heartbeat IPC: 0.382873 cumulative IPC: 0.396294 (Simulation time: 4 hr 20 min 24 sec) 
Heartbeat CPU 0 instructions: 100000000 cycles: 233498292 heartbeat IPC: 0.380615 cumulative IPC: 0.396113 (Simulation time: 4 hr 21 min 13 sec) 
Heartbeat CPU 0 instructions: 101000002 cycles: 236155439 heartbeat IPC: 0.376344 cumulative IPC: 0.395884 (Simulation time: 4 hr 22 min 1 sec) 
Heartbeat CPU 0 instructions: 102000000 cycles: 238790325 heartbeat IPC: 0.379522 cumulative IPC: 0.395699 (Simulation time: 4 hr 22 min 46 sec) 
Heartbeat CPU 0 instructions: 103000000 cycles: 241417615 heartbeat IPC: 0.38062 cumulative IPC: 0.39553 (Simulation time: 4 hr 23 min 29 sec) 
Heartbeat CPU 0 instructions: 104000000 cycles: 244080550 heartbeat IPC: 0.375526 cumulative IPC: 0.395306 (Simulation time: 4 hr 24 min 17 sec) 
Heartbeat CPU 0 instructions: 105000003 cycles: 246261529 heartbeat IPC: 0.458511 cumulative IPC: 0.395881 (Simulation time: 4 hr 24 min 57 sec) 
Heartbeat CPU 0 instructions: 106000000 cycles: 248239200 heartbeat IPC: 0.505644 cumulative IPC: 0.396778 (Simulation time: 4 hr 25 min 31 sec) 
Heartbeat CPU 0 instructions: 107000003 cycles: 250215836 heartbeat IPC: 0.505912 cumulative IPC: 0.397662 (Simulation time: 4 hr 26 min 5 sec) 
Heartbeat CPU 0 instructions: 108000000 cycles: 252929350 heartbeat IPC: 0.368525 cumulative IPC: 0.397342 (Simulation time: 4 hr 26 min 43 sec) 
Heartbeat CPU 0 instructions: 109000001 cycles: 255626306 heartbeat IPC: 0.370789 cumulative IPC: 0.397055 (Simulation time: 4 hr 27 min 22 sec) 
Heartbeat CPU 0 instructions: 110000000 cycles: 258134161 heartbeat IPC: 0.398747 cumulative IPC: 0.397071 (Simulation time: 4 hr 27 min 56 sec) 
Finished CPU 0 instructions: 100000000 cycles: 251843889 cummulative IPC: 0.397071 (Simulation time: 4 hr 27 min 56 sec) 

ChampSim completed all CPUs

Region of Interest Statistics

CPU 0 cummulative IPC: 0.397071 instructions: 100000000 cycles: 251843889
LLC TOTAL     ACCESS:     656693  HIT:     576970  MISS:      79723
LLC LOAD      ACCESS:     310895  HIT:     303925  MISS:       6970
LLC RFO       ACCESS:      30803  HIT:      27000  MISS:       3803
LLC PREFETCH  ACCESS:     212711  HIT:     146686  MISS:      66025
LLC WRITEBACK ACCESS:     102284  HIT:      99359  MISS:       2925
