
*** ChampSim Multicore Out-of-Order Simulator ***

Warmup Instructions: 10000000
Simulation Instructions: 100000000
Configuration: 2
Number of CPUs: 1
LLC sets: 2048
LLC ways: 16
Off-chip DRAM Channels: 1 Width: 64-bit Data Rate: 1600 MT/s

CPU 0 runs /datasets/cs240c-wi22-a00-public/data/Assignment2-gz/soplex_66B.trace.gz
CPU 0 L1D next line prefetcher
CPU 0 L2C IP-based stride prefetcher
config 2, num_core 1, llc_sets 2048
Heartbeat CPU 0 instructions: 1000003 cycles: 415144 heartbeat IPC: 2.40881 cumulative IPC: 2.40881 (Simulation time: 0 hr 2 min 42 sec) 
Heartbeat CPU 0 instructions: 2000003 cycles: 837678 heartbeat IPC: 2.36667 cumulative IPC: 2.38756 (Simulation time: 0 hr 5 min 7 sec) 
Heartbeat CPU 0 instructions: 3000003 cycles: 1243373 heartbeat IPC: 2.46491 cumulative IPC: 2.41279 (Simulation time: 0 hr 7 min 26 sec) 
Heartbeat CPU 0 instructions: 4000000 cycles: 1627492 heartbeat IPC: 2.60335 cumulative IPC: 2.45777 (Simulation time: 0 hr 9 min 16 sec) 
Heartbeat CPU 0 instructions: 5000000 cycles: 2039085 heartbeat IPC: 2.42958 cumulative IPC: 2.45208 (Simulation time: 0 hr 11 min 24 sec) 
Heartbeat CPU 0 instructions: 6000000 cycles: 2510940 heartbeat IPC: 2.1193 cumulative IPC: 2.38954 (Simulation time: 0 hr 13 min 32 sec) 
Heartbeat CPU 0 instructions: 7000002 cycles: 2883573 heartbeat IPC: 2.68361 cumulative IPC: 2.42754 (Simulation time: 0 hr 15 min 46 sec) 
Heartbeat CPU 0 instructions: 8000000 cycles: 3309319 heartbeat IPC: 2.34881 cumulative IPC: 2.41742 (Simulation time: 0 hr 18 min 21 sec) 
Heartbeat CPU 0 instructions: 9000001 cycles: 3747907 heartbeat IPC: 2.28005 cumulative IPC: 2.40134 (Simulation time: 0 hr 20 min 37 sec) 
Heartbeat CPU 0 instructions: 10000002 cycles: 4160092 heartbeat IPC: 2.4261 cumulative IPC: 2.40379 (Simulation time: 0 hr 22 min 52 sec) 

Warmup complete CPU 0 instructions: 10000002 cycles: 4160092 (Simulation time: 0 hr 22 min 52 sec) 

Heartbeat CPU 0 instructions: 11000001 cycles: 7365138 heartbeat IPC: 0.312008 cumulative IPC: 0.312008 (Simulation time: 0 hr 25 min 42 sec) 
Heartbeat CPU 0 instructions: 12000000 cycles: 8727593 heartbeat IPC: 0.733968 cumulative IPC: 0.437876 (Simulation time: 0 hr 27 min 42 sec) 
Heartbeat CPU 0 instructions: 13000001 cycles: 11324862 heartbeat IPC: 0.38502 cumulative IPC: 0.418715 (Simulation time: 0 hr 30 min 11 sec) 
Heartbeat CPU 0 instructions: 14000002 cycles: 13809114 heartbeat IPC: 0.402536 cumulative IPC: 0.41455 (Simulation time: 0 hr 32 min 35 sec) 
Heartbeat CPU 0 instructions: 15000002 cycles: 16439751 heartbeat IPC: 0.380136 cumulative IPC: 0.407177 (Simulation time: 0 hr 34 min 51 sec) 
Heartbeat CPU 0 instructions: 16000000 cycles: 19242781 heartbeat IPC: 0.356756 cumulative IPC: 0.397807 (Simulation time: 0 hr 37 min 26 sec) 
Heartbeat CPU 0 instructions: 17000001 cycles: 21349416 heartbeat IPC: 0.474691 cumulative IPC: 0.407229 (Simulation time: 0 hr 40 min 19 sec) 
Heartbeat CPU 0 instructions: 18000000 cycles: 23337429 heartbeat IPC: 0.503014 cumulative IPC: 0.417159 (Simulation time: 0 hr 43 min 3 sec) 
Heartbeat CPU 0 instructions: 19000002 cycles: 26677596 heartbeat IPC: 0.299387 cumulative IPC: 0.399689 (Simulation time: 0 hr 46 min 14 sec) 
Heartbeat CPU 0 instructions: 20000000 cycles: 28019831 heartbeat IPC: 0.745025 cumulative IPC: 0.419116 (Simulation time: 0 hr 48 min 9 sec) 
Heartbeat CPU 0 instructions: 21000000 cycles: 30184483 heartbeat IPC: 0.461968 cumulative IPC: 0.42268 (Simulation time: 0 hr 50 min 38 sec) 
Heartbeat CPU 0 instructions: 22000000 cycles: 32813797 heartbeat IPC: 0.380327 cumulative IPC: 0.418794 (Simulation time: 0 hr 53 min 10 sec) 
Heartbeat CPU 0 instructions: 23000000 cycles: 35389087 heartbeat IPC: 0.388306 cumulative IPC: 0.41628 (Simulation time: 0 hr 55 min 28 sec) 
Heartbeat CPU 0 instructions: 24000000 cycles: 37999066 heartbeat IPC: 0.383145 cumulative IPC: 0.413724 (Simulation time: 0 hr 57 min 53 sec) 
Heartbeat CPU 0 instructions: 25000003 cycles: 40139712 heartbeat IPC: 0.46715 cumulative IPC: 0.416903 (Simulation time: 1 hr 0 min 56 sec) 
Heartbeat CPU 0 instructions: 26000001 cycles: 42229359 heartbeat IPC: 0.478549 cumulative IPC: 0.420287 (Simulation time: 1 hr 3 min 24 sec) 
Heartbeat CPU 0 instructions: 27000002 cycles: 45555669 heartbeat IPC: 0.300634 cumulative IPC: 0.410672 (Simulation time: 1 hr 6 min 48 sec) 
Heartbeat CPU 0 instructions: 28000000 cycles: 46896466 heartbeat IPC: 0.745824 cumulative IPC: 0.421187 (Simulation time: 1 hr 8 min 50 sec) 
Heartbeat CPU 0 instructions: 29000002 cycles: 48701079 heartbeat IPC: 0.554137 cumulative IPC: 0.426573 (Simulation time: 1 hr 11 min 3 sec) 
Heartbeat CPU 0 instructions: 30000000 cycles: 51469115 heartbeat IPC: 0.361266 cumulative IPC: 0.422752 (Simulation time: 1 hr 13 min 46 sec) 
Heartbeat CPU 0 instructions: 31000001 cycles: 54050910 heartbeat IPC: 0.387328 cumulative IPC: 0.420919 (Simulation time: 1 hr 16 min 1 sec) 
Heartbeat CPU 0 instructions: 32000000 cycles: 56590030 heartbeat IPC: 0.393837 cumulative IPC: 0.419608 (Simulation time: 1 hr 18 min 30 sec) 
Heartbeat CPU 0 instructions: 33000001 cycles: 59655037 heartbeat IPC: 0.326264 cumulative IPC: 0.414452 (Simulation time: 1 hr 21 min 42 sec) 
Heartbeat CPU 0 instructions: 34000003 cycles: 61586505 heartbeat IPC: 0.517742 cumulative IPC: 0.417926 (Simulation time: 1 hr 24 min 21 sec) 
Heartbeat CPU 0 instructions: 35000003 cycles: 64478743 heartbeat IPC: 0.345753 cumulative IPC: 0.414466 (Simulation time: 1 hr 27 min 2 sec) 
Heartbeat CPU 0 instructions: 36000000 cycles: 65812681 heartbeat IPC: 0.749658 cumulative IPC: 0.421718 (Simulation time: 1 hr 29 min 1 sec) 
Heartbeat CPU 0 instructions: 37000000 cycles: 68327295 heartbeat IPC: 0.397675 cumulative IPC: 0.420776 (Simulation time: 1 hr 31 min 29 sec) 
Heartbeat CPU 0 instructions: 38000001 cycles: 70682957 heartbeat IPC: 0.42451 cumulative IPC: 0.420908 (Simulation time: 1 hr 34 min 4 sec) 
Heartbeat CPU 0 instructions: 39000003 cycles: 73292164 heartbeat IPC: 0.383259 cumulative IPC: 0.419487 (Simulation time: 1 hr 36 min 26 sec) 
Heartbeat CPU 0 instructions: 40000000 cycles: 76048577 heartbeat IPC: 0.362789 cumulative IPC: 0.417313 (Simulation time: 1 hr 38 min 51 sec) 
Heartbeat CPU 0 instructions: 41000001 cycles: 78069040 heartbeat IPC: 0.494937 cumulative IPC: 0.419435 (Simulation time: 1 hr 41 min 43 sec) 
Heartbeat CPU 0 instructions: 42000003 cycles: 79956113 heartbeat IPC: 0.529922 cumulative IPC: 0.422186 (Simulation time: 1 hr 44 min 20 sec) 
Heartbeat CPU 0 instructions: 43000000 cycles: 83199705 heartbeat IPC: 0.308299 cumulative IPC: 0.417512 (Simulation time: 1 hr 47 min 15 sec) 
Heartbeat CPU 0 instructions: 44000000 cycles: 84534225 heartbeat IPC: 0.749333 cumulative IPC: 0.423022 (Simulation time: 1 hr 49 min 3 sec) 
Heartbeat CPU 0 instructions: 45000003 cycles: 86681784 heartbeat IPC: 0.465646 cumulative IPC: 0.424131 (Simulation time: 1 hr 51 min 23 sec) 
Heartbeat CPU 0 instructions: 46000003 cycles: 89272480 heartbeat IPC: 0.385997 cumulative IPC: 0.42297 (Simulation time: 1 hr 53 min 53 sec) 
Heartbeat CPU 0 instructions: 47000001 cycles: 91828424 heartbeat IPC: 0.391244 cumulative IPC: 0.422045 (Simulation time: 1 hr 55 min 58 sec) 
Heartbeat CPU 0 instructions: 48000000 cycles: 94425314 heartbeat IPC: 0.385076 cumulative IPC: 0.420982 (Simulation time: 1 hr 58 min 15 sec) 
Heartbeat CPU 0 instructions: 49000000 cycles: 97733231 heartbeat IPC: 0.302305 cumulative IPC: 0.416786 (Simulation time: 2 hr 1 min 49 sec) 
Heartbeat CPU 0 instructions: 50000003 cycles: 103688456 heartbeat IPC: 0.16792 cumulative IPC: 0.401895 (Simulation time: 2 hr 5 min 51 sec) 
Heartbeat CPU 0 instructions: 51000002 cycles: 106106419 heartbeat IPC: 0.413571 cumulative IPC: 0.402172 (Simulation time: 2 hr 8 min 59 sec) 
Heartbeat CPU 0 instructions: 52000000 cycles: 110404943 heartbeat IPC: 0.232638 cumulative IPC: 0.395313 (Simulation time: 2 hr 12 min 37 sec) 
Heartbeat CPU 0 instructions: 53000000 cycles: 113263511 heartbeat IPC: 0.349826 cumulative IPC: 0.394121 (Simulation time: 2 hr 15 min 43 sec) 
Heartbeat CPU 0 instructions: 54000000 cycles: 115786384 heartbeat IPC: 0.396374 cumulative IPC: 0.394172 (Simulation time: 2 hr 18 min 43 sec) 
Heartbeat CPU 0 instructions: 55000002 cycles: 119422841 heartbeat IPC: 0.274993 cumulative IPC: 0.390412 (Simulation time: 2 hr 21 min 37 sec) 
Heartbeat CPU 0 instructions: 56000000 cycles: 122963963 heartbeat IPC: 0.282396 cumulative IPC: 0.387193 (Simulation time: 2 hr 24 min 49 sec) 
Heartbeat CPU 0 instructions: 57000003 cycles: 125592746 heartbeat IPC: 0.380405 cumulative IPC: 0.387046 (Simulation time: 2 hr 27 min 34 sec) 
Heartbeat CPU 0 instructions: 58000000 cycles: 127849246 heartbeat IPC: 0.443163 cumulative IPC: 0.38807 (Simulation time: 2 hr 30 min 22 sec) 
Heartbeat CPU 0 instructions: 59000002 cycles: 129365824 heartbeat IPC: 0.659381 cumulative IPC: 0.391356 (Simulation time: 2 hr 32 min 42 sec) 
Heartbeat CPU 0 instructions: 60000000 cycles: 130625670 heartbeat IPC: 0.793746 cumulative IPC: 0.395364 (Simulation time: 2 hr 34 min 59 sec) 
Heartbeat CPU 0 instructions: 61000002 cycles: 133498573 heartbeat IPC: 0.348081 cumulative IPC: 0.394314 (Simulation time: 2 hr 38 min 1 sec) 
Heartbeat CPU 0 instructions: 62000002 cycles: 136223387 heartbeat IPC: 0.366998 cumulative IPC: 0.393751 (Simulation time: 2 hr 41 min 4 sec) 
Heartbeat CPU 0 instructions: 63000002 cycles: 138306003 heartbeat IPC: 0.480165 cumulative IPC: 0.395092 (Simulation time: 2 hr 43 min 50 sec) 
Heartbeat CPU 0 instructions: 64000000 cycles: 140721814 heartbeat IPC: 0.413939 cumulative IPC: 0.395426 (Simulation time: 2 hr 46 min 19 sec) 
Heartbeat CPU 0 instructions: 65000000 cycles: 145005798 heartbeat IPC: 0.233428 cumulative IPC: 0.390498 (Simulation time: 2 hr 49 min 52 sec) 
Heartbeat CPU 0 instructions: 66000001 cycles: 146491424 heartbeat IPC: 0.673118 cumulative IPC: 0.393448 (Simulation time: 2 hr 51 min 43 sec) 
Heartbeat CPU 0 instructions: 67000000 cycles: 147937909 heartbeat IPC: 0.69133 cumulative IPC: 0.396445 (Simulation time: 2 hr 53 min 41 sec) 
Heartbeat CPU 0 instructions: 68000000 cycles: 151383975 heartbeat IPC: 0.290186 cumulative IPC: 0.393958 (Simulation time: 2 hr 56 min 23 sec) 
Heartbeat CPU 0 instructions: 69000000 cycles: 153904596 heartbeat IPC: 0.396728 cumulative IPC: 0.394004 (Simulation time: 2 hr 58 min 27 sec) 
Heartbeat CPU 0 instructions: 70000001 cycles: 156376604 heartbeat IPC: 0.40453 cumulative IPC: 0.394175 (Simulation time: 3 hr 0 min 31 sec) 
Heartbeat CPU 0 instructions: 71000000 cycles: 158873047 heartbeat IPC: 0.40057 cumulative IPC: 0.394279 (Simulation time: 3 hr 3 min 34 sec) 
Heartbeat CPU 0 instructions: 72000000 cycles: 161686896 heartbeat IPC: 0.355385 cumulative IPC: 0.393584 (Simulation time: 3 hr 6 min 11 sec) 
Heartbeat CPU 0 instructions: 73000002 cycles: 164752687 heartbeat IPC: 0.326181 cumulative IPC: 0.392297 (Simulation time: 3 hr 9 min 6 sec) 
Heartbeat CPU 0 instructions: 74000000 cycles: 166794327 heartbeat IPC: 0.489801 cumulative IPC: 0.393521 (Simulation time: 3 hr 11 min 15 sec) 
Heartbeat CPU 0 instructions: 75000002 cycles: 168160879 heartbeat IPC: 0.73177 cumulative IPC: 0.39634 (Simulation time: 3 hr 13 min 4 sec) 
Heartbeat CPU 0 instructions: 76000000 cycles: 171322806 heartbeat IPC: 0.316262 cumulative IPC: 0.394825 (Simulation time: 3 hr 15 min 43 sec) 
Heartbeat CPU 0 instructions: 77000000 cycles: 173718489 heartbeat IPC: 0.417417 cumulative IPC: 0.395144 (Simulation time: 3 hr 17 min 57 sec) 
Heartbeat CPU 0 instructions: 78000003 cycles: 176234654 heartbeat IPC: 0.397431 cumulative IPC: 0.395178 (Simulation time: 3 hr 19 min 59 sec) 
Heartbeat CPU 0 instructions: 79000001 cycles: 179240039 heartbeat IPC: 0.332735 cumulative IPC: 0.394106 (Simulation time: 3 hr 22 min 35 sec) 
Heartbeat CPU 0 instructions: 80000000 cycles: 181783546 heartbeat IPC: 0.393158 cumulative IPC: 0.394092 (Simulation time: 3 hr 24 min 55 sec) 
Heartbeat CPU 0 instructions: 81000003 cycles: 184662812 heartbeat IPC: 0.347312 cumulative IPC: 0.393346 (Simulation time: 3 hr 27 min 36 sec) 
Heartbeat CPU 0 instructions: 82000000 cycles: 186401055 heartbeat IPC: 0.575292 cumulative IPC: 0.395081 (Simulation time: 3 hr 29 min 18 sec) 
Heartbeat CPU 0 instructions: 83000001 cycles: 187724208 heartbeat IPC: 0.755771 cumulative IPC: 0.397681 (Simulation time: 3 hr 30 min 56 sec) 
Heartbeat CPU 0 instructions: 84000000 cycles: 190819581 heartbeat IPC: 0.323063 cumulative IPC: 0.396444 (Simulation time: 3 hr 33 min 20 sec) 
Heartbeat CPU 0 instructions: 85000002 cycles: 193206394 heartbeat IPC: 0.41897 cumulative IPC: 0.396728 (Simulation time: 3 hr 35 min 20 sec) 
Heartbeat CPU 0 instructions: 86000000 cycles: 195797359 heartbeat IPC: 0.385956 cumulative IPC: 0.396583 (Simulation time: 3 hr 37 min 11 sec) 
Heartbeat CPU 0 instructions: 87000000 cycles: 198585671 heartbeat IPC: 0.35864 cumulative IPC: 0.396038 (Simulation time: 3 hr 39 min 43 sec) 
Heartbeat CPU 0 instructions: 88000000 cycles: 200739733 heartbeat IPC: 0.464239 cumulative IPC: 0.396786 (Simulation time: 3 hr 41 min 52 sec) 
Heartbeat CPU 0 instructions: 89000001 cycles: 203980036 heartbeat IPC: 0.308613 cumulative IPC: 0.395356 (Simulation time: 3 hr 44 min 24 sec) 
Heartbeat CPU 0 instructions: 90000002 cycles: 205320405 heartbeat IPC: 0.746064 cumulative IPC: 0.397693 (Simulation time: 3 hr 45 min 57 sec) 
Heartbeat CPU 0 instructions: 91000000 cycles: 206717431 heartbeat IPC: 0.715805 cumulative IPC: 0.399887 (Simulation time: 3 hr 47 min 31 sec) 
Heartbeat CPU 0 instructions: 92000000 cycles: 209749510 heartbeat IPC: 0.329807 cumulative IPC: 0.398853 (Simulation time: 3 hr 49 min 43 sec) 
Heartbeat CPU 0 instructions: 93000000 cycles: 212347159 heartbeat IPC: 0.384963 cumulative IPC: 0.39868 (Simulation time: 3 hr 51 min 18 sec) 
Heartbeat CPU 0 instructions: 94000001 cycles: 214860836 heartbeat IPC: 0.397824 cumulative IPC: 0.39867 (Simulation time: 3 hr 52 min 53 sec) 
Heartbeat CPU 0 instructions: 95000003 cycles: 217842876 heartbeat IPC: 0.335342 cumulative IPC: 0.397786 (Simulation time: 3 hr 55 min 7 sec) 
Heartbeat CPU 0 instructions: 96000000 cycles: 219744305 heartbeat IPC: 0.525919 cumulative IPC: 0.398916 (Simulation time: 3 hr 56 min 59 sec) 
Heartbeat CPU 0 instructions: 97000003 cycles: 222818669 heartbeat IPC: 0.325272 cumulative IPC: 0.397881 (Simulation time: 3 hr 58 min 59 sec) 
Heartbeat CPU 0 instructions: 98000003 cycles: 224150173 heartbeat IPC: 0.75103 cumulative IPC: 0.400018 (Simulation time: 4 hr 0 min 11 sec) 
Heartbeat CPU 0 instructions: 99000000 cycles: 226467800 heartbeat IPC: 0.431475 cumulative IPC: 0.400346 (Simulation time: 4 hr 1 min 39 sec) 
Heartbeat CPU 0 instructions: 100000000 cycles: 228978262 heartbeat IPC: 0.398333 cumulative IPC: 0.400324 (Simulation time: 4 hr 3 min 17 sec) 
Heartbeat CPU 0 instructions: 101000001 cycles: 231510362 heartbeat IPC: 0.394929 cumulative IPC: 0.400263 (Simulation time: 4 hr 4 min 34 sec) 
Heartbeat CPU 0 instructions: 102000002 cycles: 234152451 heartbeat IPC: 0.378489 cumulative IPC: 0.400013 (Simulation time: 4 hr 5 min 49 sec) 
Heartbeat CPU 0 instructions: 103000002 cycles: 237029607 heartbeat IPC: 0.347565 cumulative IPC: 0.399365 (Simulation time: 4 hr 7 min 29 sec) 
Heartbeat CPU 0 instructions: 104000000 cycles: 239185102 heartbeat IPC: 0.46393 cumulative IPC: 0.399957 (Simulation time: 4 hr 8 min 55 sec) 
Heartbeat CPU 0 instructions: 105000000 cycles: 241572831 heartbeat IPC: 0.418808 cumulative IPC: 0.400147 (Simulation time: 4 hr 10 min 5 sec) 
Heartbeat CPU 0 instructions: 106000001 cycles: 242892795 heartbeat IPC: 0.757597 cumulative IPC: 0.402123 (Simulation time: 4 hr 10 min 55 sec) 
Heartbeat CPU 0 instructions: 107000001 cycles: 245787554 heartbeat IPC: 0.345452 cumulative IPC: 0.401444 (Simulation time: 4 hr 12 min 5 sec) 
Heartbeat CPU 0 instructions: 108000000 cycles: 247997007 heartbeat IPC: 0.4526 cumulative IPC: 0.401908 (Simulation time: 4 hr 13 min 4 sec) 
Heartbeat CPU 0 instructions: 109000003 cycles: 250583546 heartbeat IPC: 0.386618 cumulative IPC: 0.401747 (Simulation time: 4 hr 13 min 54 sec) 
Heartbeat CPU 0 instructions: 110000001 cycles: 253447557 heartbeat IPC: 0.34916 cumulative IPC: 0.401143 (Simulation time: 4 hr 15 min 0 sec) 
Finished CPU 0 instructions: 100000003 cycles: 249287466 cummulative IPC: 0.401143 (Simulation time: 4 hr 15 min 0 sec) 

ChampSim completed all CPUs

Region of Interest Statistics

CPU 0 cummulative IPC: 0.401143 instructions: 100000003 cycles: 249287466
LLC TOTAL     ACCESS:    6604797  HIT:    2894290  MISS:    3710507
LLC LOAD      ACCESS:    1698849  HIT:     754090  MISS:     944759
LLC RFO       ACCESS:     658500  HIT:     291980  MISS:     366520
LLC PREFETCH  ACCESS:    2686801  HIT:     903866  MISS:    1782935
LLC WRITEBACK ACCESS:    1560647  HIT:     944354  MISS:     616293
