
*** ChampSim Multicore Out-of-Order Simulator ***

Warmup Instructions: 10000000
Simulation Instructions: 100000000
Configuration: 1
Number of CPUs: 1
LLC sets: 2048
LLC ways: 16
Off-chip DRAM Channels: 1 Width: 64-bit Data Rate: 1600 MT/s

CPU 0 runs /datasets/cs240c-wi22-a00-public/data/Assignment2-gz/bzip2_259B.trace.gz
config 1, num_core 1, llc_sets 2048
Heartbeat CPU 0 instructions: 1000002 cycles: 428954 heartbeat IPC: 2.33126 cumulative IPC: 2.33126 (Simulation time: 0 hr 1 min 26 sec) 
Heartbeat CPU 0 instructions: 2000003 cycles: 861405 heartbeat IPC: 2.3124 cumulative IPC: 2.32179 (Simulation time: 0 hr 2 min 52 sec) 
Heartbeat CPU 0 instructions: 3000001 cycles: 1287146 heartbeat IPC: 2.34884 cumulative IPC: 2.33074 (Simulation time: 0 hr 4 min 14 sec) 
Heartbeat CPU 0 instructions: 4000000 cycles: 1685688 heartbeat IPC: 2.50914 cumulative IPC: 2.37292 (Simulation time: 0 hr 5 min 33 sec) 
Heartbeat CPU 0 instructions: 5000001 cycles: 2104136 heartbeat IPC: 2.38979 cumulative IPC: 2.37627 (Simulation time: 0 hr 7 min 2 sec) 
Heartbeat CPU 0 instructions: 6000001 cycles: 2533733 heartbeat IPC: 2.32776 cumulative IPC: 2.36805 (Simulation time: 0 hr 8 min 29 sec) 
Heartbeat CPU 0 instructions: 7000003 cycles: 2962787 heartbeat IPC: 2.33071 cumulative IPC: 2.36264 (Simulation time: 0 hr 9 min 55 sec) 
Heartbeat CPU 0 instructions: 8000000 cycles: 3392836 heartbeat IPC: 2.32531 cumulative IPC: 2.35791 (Simulation time: 0 hr 11 min 24 sec) 
Heartbeat CPU 0 instructions: 9000000 cycles: 3820968 heartbeat IPC: 2.33573 cumulative IPC: 2.35542 (Simulation time: 0 hr 12 min 52 sec) 
Heartbeat CPU 0 instructions: 10000002 cycles: 4195066 heartbeat IPC: 2.6731 cumulative IPC: 2.38375 (Simulation time: 0 hr 14 min 3 sec) 

Warmup complete CPU 0 instructions: 10000002 cycles: 4195066 (Simulation time: 0 hr 14 min 3 sec) 

Heartbeat CPU 0 instructions: 11000002 cycles: 5291058 heartbeat IPC: 0.912415 cumulative IPC: 0.912415 (Simulation time: 0 hr 15 min 28 sec) 
Heartbeat CPU 0 instructions: 12000000 cycles: 7148082 heartbeat IPC: 0.538495 cumulative IPC: 0.677273 (Simulation time: 0 hr 17 min 13 sec) 
Heartbeat CPU 0 instructions: 13000002 cycles: 8908881 heartbeat IPC: 0.567925 cumulative IPC: 0.636427 (Simulation time: 0 hr 19 min 0 sec) 
Heartbeat CPU 0 instructions: 14000002 cycles: 10735953 heartbeat IPC: 0.547324 cumulative IPC: 0.611538 (Simulation time: 0 hr 20 min 43 sec) 
Heartbeat CPU 0 instructions: 15000002 cycles: 12564866 heartbeat IPC: 0.546773 cumulative IPC: 0.597386 (Simulation time: 0 hr 22 min 28 sec) 
Heartbeat CPU 0 instructions: 16000000 cycles: 14296966 heartbeat IPC: 0.577333 cumulative IPC: 0.593947 (Simulation time: 0 hr 24 min 10 sec) 
Heartbeat CPU 0 instructions: 17000002 cycles: 15892214 heartbeat IPC: 0.626863 cumulative IPC: 0.598436 (Simulation time: 0 hr 25 min 53 sec) 
Heartbeat CPU 0 instructions: 18000001 cycles: 17531070 heartbeat IPC: 0.610181 cumulative IPC: 0.59988 (Simulation time: 0 hr 27 min 30 sec) 
Heartbeat CPU 0 instructions: 19000003 cycles: 18986359 heartbeat IPC: 0.68715 cumulative IPC: 0.608466 (Simulation time: 0 hr 29 min 3 sec) 
Heartbeat CPU 0 instructions: 20000000 cycles: 20336667 heartbeat IPC: 0.74057 cumulative IPC: 0.619517 (Simulation time: 0 hr 30 min 30 sec) 
Heartbeat CPU 0 instructions: 21000000 cycles: 21535695 heartbeat IPC: 0.834009 cumulative IPC: 0.634348 (Simulation time: 0 hr 31 min 56 sec) 
Heartbeat CPU 0 instructions: 22000001 cycles: 22723139 heartbeat IPC: 0.842146 cumulative IPC: 0.647666 (Simulation time: 0 hr 33 min 21 sec) 
Heartbeat CPU 0 instructions: 23000003 cycles: 23949519 heartbeat IPC: 0.81541 cumulative IPC: 0.65808 (Simulation time: 0 hr 34 min 45 sec) 
Heartbeat CPU 0 instructions: 24000000 cycles: 25178266 heartbeat IPC: 0.813835 cumulative IPC: 0.6672 (Simulation time: 0 hr 36 min 11 sec) 
Heartbeat CPU 0 instructions: 25000000 cycles: 26353141 heartbeat IPC: 0.851154 cumulative IPC: 0.676954 (Simulation time: 0 hr 37 min 34 sec) 
Heartbeat CPU 0 instructions: 26000000 cycles: 27538411 heartbeat IPC: 0.84369 cumulative IPC: 0.68542 (Simulation time: 0 hr 38 min 56 sec) 
Heartbeat CPU 0 instructions: 27000003 cycles: 28726864 heartbeat IPC: 0.841433 cumulative IPC: 0.692978 (Simulation time: 0 hr 40 min 19 sec) 
Heartbeat CPU 0 instructions: 28000000 cycles: 29779099 heartbeat IPC: 0.950355 cumulative IPC: 0.703564 (Simulation time: 0 hr 41 min 40 sec) 
Heartbeat CPU 0 instructions: 29000000 cycles: 30806569 heartbeat IPC: 0.973264 cumulative IPC: 0.713977 (Simulation time: 0 hr 43 min 1 sec) 
Heartbeat CPU 0 instructions: 30000001 cycles: 31922221 heartbeat IPC: 0.896338 cumulative IPC: 0.721314 (Simulation time: 0 hr 44 min 20 sec) 
Heartbeat CPU 0 instructions: 31000002 cycles: 33020096 heartbeat IPC: 0.910851 cumulative IPC: 0.728534 (Simulation time: 0 hr 45 min 41 sec) 
Heartbeat CPU 0 instructions: 32000000 cycles: 34146942 heartbeat IPC: 0.887431 cumulative IPC: 0.734511 (Simulation time: 0 hr 46 min 58 sec) 
Heartbeat CPU 0 instructions: 33000002 cycles: 35491750 heartbeat IPC: 0.743602 cumulative IPC: 0.734902 (Simulation time: 0 hr 48 min 18 sec) 
Heartbeat CPU 0 instructions: 34000003 cycles: 36958323 heartbeat IPC: 0.681862 cumulative IPC: 0.732528 (Simulation time: 0 hr 49 min 46 sec) 
Heartbeat CPU 0 instructions: 35000001 cycles: 38137178 heartbeat IPC: 0.848279 cumulative IPC: 0.736548 (Simulation time: 0 hr 51 min 13 sec) 
Heartbeat CPU 0 instructions: 36000000 cycles: 39390259 heartbeat IPC: 0.798032 cumulative IPC: 0.738737 (Simulation time: 0 hr 52 min 27 sec) 
Heartbeat CPU 0 instructions: 37000002 cycles: 40434360 heartbeat IPC: 0.957764 cumulative IPC: 0.745048 (Simulation time: 0 hr 53 min 39 sec) 
Heartbeat CPU 0 instructions: 38000003 cycles: 41561710 heartbeat IPC: 0.887037 cumulative IPC: 0.749331 (Simulation time: 0 hr 54 min 47 sec) 
Heartbeat CPU 0 instructions: 39000001 cycles: 42706241 heartbeat IPC: 0.873719 cumulative IPC: 0.753028 (Simulation time: 0 hr 55 min 58 sec) 
Heartbeat CPU 0 instructions: 40000000 cycles: 43784827 heartbeat IPC: 0.927139 cumulative IPC: 0.757772 (Simulation time: 0 hr 57 min 18 sec) 
Heartbeat CPU 0 instructions: 41000001 cycles: 44977305 heartbeat IPC: 0.838591 cumulative IPC: 0.760135 (Simulation time: 0 hr 58 min 35 sec) 
Heartbeat CPU 0 instructions: 42000000 cycles: 46198004 heartbeat IPC: 0.819202 cumulative IPC: 0.761851 (Simulation time: 0 hr 59 min 53 sec) 
Heartbeat CPU 0 instructions: 43000003 cycles: 47415640 heartbeat IPC: 0.821266 cumulative IPC: 0.763525 (Simulation time: 1 hr 1 min 2 sec) 
Heartbeat CPU 0 instructions: 44000000 cycles: 48638495 heartbeat IPC: 0.817756 cumulative IPC: 0.765017 (Simulation time: 1 hr 2 min 14 sec) 
Heartbeat CPU 0 instructions: 45000000 cycles: 49861407 heartbeat IPC: 0.81772 cumulative IPC: 0.766429 (Simulation time: 1 hr 3 min 24 sec) 
Heartbeat CPU 0 instructions: 46000002 cycles: 51111271 heartbeat IPC: 0.800089 cumulative IPC: 0.767325 (Simulation time: 1 hr 4 min 31 sec) 
Heartbeat CPU 0 instructions: 47000000 cycles: 52351992 heartbeat IPC: 0.805981 cumulative IPC: 0.768321 (Simulation time: 1 hr 5 min 43 sec) 
Heartbeat CPU 0 instructions: 48000000 cycles: 53591163 heartbeat IPC: 0.806991 cumulative IPC: 0.769292 (Simulation time: 1 hr 6 min 59 sec) 
Heartbeat CPU 0 instructions: 49000003 cycles: 54869971 heartbeat IPC: 0.781981 cumulative IPC: 0.769612 (Simulation time: 1 hr 8 min 9 sec) 
Heartbeat CPU 0 instructions: 50000001 cycles: 55910717 heartbeat IPC: 0.960847 cumulative IPC: 0.77346 (Simulation time: 1 hr 9 min 22 sec) 
Heartbeat CPU 0 instructions: 51000002 cycles: 57084415 heartbeat IPC: 0.852009 cumulative IPC: 0.775203 (Simulation time: 1 hr 10 min 35 sec) 
Heartbeat CPU 0 instructions: 52000000 cycles: 58203319 heartbeat IPC: 0.89373 cumulative IPC: 0.777659 (Simulation time: 1 hr 11 min 47 sec) 
Heartbeat CPU 0 instructions: 53000001 cycles: 59408941 heartbeat IPC: 0.829448 cumulative IPC: 0.77879 (Simulation time: 1 hr 13 min 0 sec) 
Heartbeat CPU 0 instructions: 54000000 cycles: 60644109 heartbeat IPC: 0.809606 cumulative IPC: 0.779464 (Simulation time: 1 hr 14 min 14 sec) 
Heartbeat CPU 0 instructions: 55000000 cycles: 61796852 heartbeat IPC: 0.867496 cumulative IPC: 0.781226 (Simulation time: 1 hr 15 min 27 sec) 
Heartbeat CPU 0 instructions: 56000000 cycles: 63031030 heartbeat IPC: 0.810256 cumulative IPC: 0.781835 (Simulation time: 1 hr 16 min 43 sec) 
Heartbeat CPU 0 instructions: 57000000 cycles: 64253034 heartbeat IPC: 0.818328 cumulative IPC: 0.782577 (Simulation time: 1 hr 17 min 54 sec) 
Heartbeat CPU 0 instructions: 58000002 cycles: 65294620 heartbeat IPC: 0.960076 cumulative IPC: 0.785603 (Simulation time: 1 hr 19 min 7 sec) 
Heartbeat CPU 0 instructions: 59000000 cycles: 66397823 heartbeat IPC: 0.90645 cumulative IPC: 0.787746 (Simulation time: 1 hr 20 min 20 sec) 
Heartbeat CPU 0 instructions: 60000000 cycles: 67587673 heartbeat IPC: 0.840442 cumulative IPC: 0.788735 (Simulation time: 1 hr 21 min 40 sec) 
Heartbeat CPU 0 instructions: 61000000 cycles: 68733186 heartbeat IPC: 0.872971 cumulative IPC: 0.790231 (Simulation time: 1 hr 22 min 55 sec) 
Heartbeat CPU 0 instructions: 62000002 cycles: 69588337 heartbeat IPC: 1.16939 cumulative IPC: 0.795189 (Simulation time: 1 hr 24 min 8 sec) 
Heartbeat CPU 0 instructions: 63000001 cycles: 70596026 heartbeat IPC: 0.992369 cumulative IPC: 0.798181 (Simulation time: 1 hr 25 min 30 sec) 
Heartbeat CPU 0 instructions: 64000000 cycles: 71938422 heartbeat IPC: 0.744936 cumulative IPC: 0.797126 (Simulation time: 1 hr 27 min 7 sec) 
Heartbeat CPU 0 instructions: 65000003 cycles: 73329026 heartbeat IPC: 0.719114 cumulative IPC: 0.795557 (Simulation time: 1 hr 28 min 43 sec) 
Heartbeat CPU 0 instructions: 66000003 cycles: 74658978 heartbeat IPC: 0.751907 cumulative IPC: 0.794733 (Simulation time: 1 hr 30 min 12 sec) 
Heartbeat CPU 0 instructions: 67000003 cycles: 76062778 heartbeat IPC: 0.712352 cumulative IPC: 0.793124 (Simulation time: 1 hr 31 min 46 sec) 
Heartbeat CPU 0 instructions: 68000000 cycles: 77536857 heartbeat IPC: 0.678388 cumulative IPC: 0.790818 (Simulation time: 1 hr 33 min 25 sec) 
Heartbeat CPU 0 instructions: 69000003 cycles: 79007140 heartbeat IPC: 0.680143 cumulative IPC: 0.788643 (Simulation time: 1 hr 35 min 6 sec) 
Heartbeat CPU 0 instructions: 70000003 cycles: 80473623 heartbeat IPC: 0.681904 cumulative IPC: 0.786591 (Simulation time: 1 hr 36 min 39 sec) 
Heartbeat CPU 0 instructions: 71000000 cycles: 82088700 heartbeat IPC: 0.619164 cumulative IPC: 0.783119 (Simulation time: 1 hr 38 min 8 sec) 
Heartbeat CPU 0 instructions: 72000000 cycles: 83536229 heartbeat IPC: 0.690832 cumulative IPC: 0.781435 (Simulation time: 1 hr 39 min 34 sec) 
Heartbeat CPU 0 instructions: 73000003 cycles: 85116914 heartbeat IPC: 0.632639 cumulative IPC: 0.778529 (Simulation time: 1 hr 41 min 5 sec) 
Heartbeat CPU 0 instructions: 74000001 cycles: 86640257 heartbeat IPC: 0.65645 cumulative IPC: 0.776273 (Simulation time: 1 hr 42 min 33 sec) 
Heartbeat CPU 0 instructions: 75000000 cycles: 88022948 heartbeat IPC: 0.723227 cumulative IPC: 0.775398 (Simulation time: 1 hr 44 min 2 sec) 
Heartbeat CPU 0 instructions: 76000000 cycles: 89326477 heartbeat IPC: 0.767148 cumulative IPC: 0.775272 (Simulation time: 1 hr 45 min 29 sec) 
Heartbeat CPU 0 instructions: 77000002 cycles: 90503977 heartbeat IPC: 0.849259 cumulative IPC: 0.776281 (Simulation time: 1 hr 46 min 53 sec) 
Heartbeat CPU 0 instructions: 78000000 cycles: 91703297 heartbeat IPC: 0.833804 cumulative IPC: 0.77707 (Simulation time: 1 hr 48 min 13 sec) 
Heartbeat CPU 0 instructions: 79000003 cycles: 93096387 heartbeat IPC: 0.717831 cumulative IPC: 0.776141 (Simulation time: 1 hr 49 min 40 sec) 
Heartbeat CPU 0 instructions: 80000000 cycles: 94571626 heartbeat IPC: 0.677854 cumulative IPC: 0.774537 (Simulation time: 1 hr 51 min 9 sec) 
Heartbeat CPU 0 instructions: 81000001 cycles: 95931633 heartbeat IPC: 0.735291 cumulative IPC: 0.773955 (Simulation time: 1 hr 52 min 34 sec) 
Heartbeat CPU 0 instructions: 82000000 cycles: 97245519 heartbeat IPC: 0.7611 cumulative IPC: 0.773774 (Simulation time: 1 hr 54 min 3 sec) 
Heartbeat CPU 0 instructions: 83000002 cycles: 98486879 heartbeat IPC: 0.80557 cumulative IPC: 0.774192 (Simulation time: 1 hr 55 min 28 sec) 
Heartbeat CPU 0 instructions: 84000000 cycles: 99628350 heartbeat IPC: 0.876061 cumulative IPC: 0.775411 (Simulation time: 1 hr 56 min 54 sec) 
Heartbeat CPU 0 instructions: 85000003 cycles: 100807346 heartbeat IPC: 0.848182 cumulative IPC: 0.776299 (Simulation time: 1 hr 58 min 19 sec) 
Heartbeat CPU 0 instructions: 86000001 cycles: 102154699 heartbeat IPC: 0.742195 cumulative IPC: 0.77583 (Simulation time: 1 hr 59 min 42 sec) 
Heartbeat CPU 0 instructions: 87000002 cycles: 103567509 heartbeat IPC: 0.70781 cumulative IPC: 0.774863 (Simulation time: 2 hr 1 min 3 sec) 
Heartbeat CPU 0 instructions: 88000000 cycles: 104773626 heartbeat IPC: 0.829105 cumulative IPC: 0.775513 (Simulation time: 2 hr 2 min 18 sec) 
Heartbeat CPU 0 instructions: 89000002 cycles: 105787041 heartbeat IPC: 0.986765 cumulative IPC: 0.77762 (Simulation time: 2 hr 3 min 38 sec) 
Heartbeat CPU 0 instructions: 90000001 cycles: 106923951 heartbeat IPC: 0.879576 cumulative IPC: 0.778749 (Simulation time: 2 hr 4 min 54 sec) 
Heartbeat CPU 0 instructions: 91000002 cycles: 108046770 heartbeat IPC: 0.890616 cumulative IPC: 0.779958 (Simulation time: 2 hr 6 min 8 sec) 
Heartbeat CPU 0 instructions: 92000000 cycles: 109087320 heartbeat IPC: 0.961028 cumulative IPC: 0.781755 (Simulation time: 2 hr 7 min 24 sec) 
Heartbeat CPU 0 instructions: 93000000 cycles: 110286559 heartbeat IPC: 0.833862 cumulative IPC: 0.782344 (Simulation time: 2 hr 8 min 37 sec) 
Heartbeat CPU 0 instructions: 94000003 cycles: 111463537 heartbeat IPC: 0.849636 cumulative IPC: 0.783082 (Simulation time: 2 hr 9 min 50 sec) 
Heartbeat CPU 0 instructions: 95000002 cycles: 112658151 heartbeat IPC: 0.83709 cumulative IPC: 0.783677 (Simulation time: 2 hr 11 min 5 sec) 
Heartbeat CPU 0 instructions: 96000000 cycles: 113838174 heartbeat IPC: 0.847439 cumulative IPC: 0.784363 (Simulation time: 2 hr 12 min 21 sec) 
Heartbeat CPU 0 instructions: 97000002 cycles: 115056067 heartbeat IPC: 0.821092 cumulative IPC: 0.784766 (Simulation time: 2 hr 13 min 36 sec) 
Heartbeat CPU 0 instructions: 98000000 cycles: 116298074 heartbeat IPC: 0.805147 cumulative IPC: 0.784992 (Simulation time: 2 hr 14 min 51 sec) 
Heartbeat CPU 0 instructions: 99000000 cycles: 117548277 heartbeat IPC: 0.79987 cumulative IPC: 0.785156 (Simulation time: 2 hr 16 min 11 sec) 
Heartbeat CPU 0 instructions: 100000000 cycles: 118791196 heartbeat IPC: 0.804558 cumulative IPC: 0.785367 (Simulation time: 2 hr 17 min 29 sec) 
Heartbeat CPU 0 instructions: 101000003 cycles: 119949075 heartbeat IPC: 0.863651 cumulative IPC: 0.78615 (Simulation time: 2 hr 18 min 46 sec) 
Heartbeat CPU 0 instructions: 102000000 cycles: 121079298 heartbeat IPC: 0.884778 cumulative IPC: 0.787104 (Simulation time: 2 hr 19 min 57 sec) 
Heartbeat CPU 0 instructions: 103000000 cycles: 122181232 heartbeat IPC: 0.907495 cumulative IPC: 0.788228 (Simulation time: 2 hr 21 min 11 sec) 
Heartbeat CPU 0 instructions: 104000000 cycles: 123345554 heartbeat IPC: 0.858869 cumulative IPC: 0.788918 (Simulation time: 2 hr 22 min 22 sec) 
Heartbeat CPU 0 instructions: 105000002 cycles: 124567129 heartbeat IPC: 0.818617 cumulative IPC: 0.78922 (Simulation time: 2 hr 23 min 40 sec) 
Heartbeat CPU 0 instructions: 106000001 cycles: 125701814 heartbeat IPC: 0.881301 cumulative IPC: 0.79008 (Simulation time: 2 hr 24 min 49 sec) 
Heartbeat CPU 0 instructions: 107000000 cycles: 126915147 heartbeat IPC: 0.824175 cumulative IPC: 0.790417 (Simulation time: 2 hr 26 min 1 sec) 
Heartbeat CPU 0 instructions: 108000000 cycles: 128124159 heartbeat IPC: 0.827122 cumulative IPC: 0.790775 (Simulation time: 2 hr 27 min 9 sec) 
Heartbeat CPU 0 instructions: 109000000 cycles: 129137160 heartbeat IPC: 0.987166 cumulative IPC: 0.792367 (Simulation time: 2 hr 28 min 15 sec) 
Heartbeat CPU 0 instructions: 110000000 cycles: 130309470 heartbeat IPC: 0.853017 cumulative IPC: 0.792931 (Simulation time: 2 hr 29 min 17 sec) 
Finished CPU 0 instructions: 100000002 cycles: 126114406 cummulative IPC: 0.792931 (Simulation time: 2 hr 29 min 17 sec) 

ChampSim completed all CPUs

Region of Interest Statistics

CPU 0 cummulative IPC: 0.792931 instructions: 100000002 cycles: 126114406
LLC TOTAL     ACCESS:     991021  HIT:     614879  MISS:     376142
LLC LOAD      ACCESS:     696693  HIT:     454129  MISS:     242564
LLC RFO       ACCESS:     102172  HIT:      50182  MISS:      51990
LLC PREFETCH  ACCESS:          0  HIT:          0  MISS:          0
LLC WRITEBACK ACCESS:     192156  HIT:     110568  MISS:      81588
