
*** ChampSim Multicore Out-of-Order Simulator ***

Warmup Instructions: 10000000
Simulation Instructions: 100000000
Configuration: 1
Number of CPUs: 1
LLC sets: 2048
LLC ways: 16
Off-chip DRAM Channels: 1 Width: 64-bit Data Rate: 1600 MT/s

CPU 0 runs /datasets/cs240c-wi22-a00-public/data/Assignment2-gz/milc_360B.trace.gz
config 1, num_core 1, llc_sets 2048
Heartbeat CPU 0 instructions: 1000001 cycles: 549889 heartbeat IPC: 1.81855 cumulative IPC: 1.81855 (Simulation time: 0 hr 1 min 31 sec) 
Heartbeat CPU 0 instructions: 2000003 cycles: 1099779 heartbeat IPC: 1.81855 cumulative IPC: 1.81855 (Simulation time: 0 hr 3 min 0 sec) 
Heartbeat CPU 0 instructions: 3000001 cycles: 1649612 heartbeat IPC: 1.81873 cumulative IPC: 1.81861 (Simulation time: 0 hr 4 min 26 sec) 
Heartbeat CPU 0 instructions: 4000000 cycles: 2199464 heartbeat IPC: 1.81867 cumulative IPC: 1.81862 (Simulation time: 0 hr 5 min 53 sec) 
Heartbeat CPU 0 instructions: 5000002 cycles: 2749347 heartbeat IPC: 1.81857 cumulative IPC: 1.81861 (Simulation time: 0 hr 7 min 24 sec) 
Heartbeat CPU 0 instructions: 6000001 cycles: 3299240 heartbeat IPC: 1.81853 cumulative IPC: 1.8186 (Simulation time: 0 hr 8 min 46 sec) 
Heartbeat CPU 0 instructions: 7000000 cycles: 3849091 heartbeat IPC: 1.81867 cumulative IPC: 1.81861 (Simulation time: 0 hr 10 min 17 sec) 
Heartbeat CPU 0 instructions: 8000000 cycles: 4398930 heartbeat IPC: 1.81871 cumulative IPC: 1.81862 (Simulation time: 0 hr 11 min 44 sec) 
Heartbeat CPU 0 instructions: 9000001 cycles: 4948828 heartbeat IPC: 1.81852 cumulative IPC: 1.81861 (Simulation time: 0 hr 13 min 9 sec) 
Heartbeat CPU 0 instructions: 10000001 cycles: 5498685 heartbeat IPC: 1.81865 cumulative IPC: 1.81862 (Simulation time: 0 hr 14 min 34 sec) 

Warmup complete CPU 0 instructions: 10000001 cycles: 5498685 (Simulation time: 0 hr 14 min 34 sec) 

Heartbeat CPU 0 instructions: 11000001 cycles: 7440587 heartbeat IPC: 0.514959 cumulative IPC: 0.514959 (Simulation time: 0 hr 16 min 17 sec) 
Heartbeat CPU 0 instructions: 12000000 cycles: 9388404 heartbeat IPC: 0.513395 cumulative IPC: 0.514176 (Simulation time: 0 hr 18 min 1 sec) 
Heartbeat CPU 0 instructions: 13000001 cycles: 11324655 heartbeat IPC: 0.516463 cumulative IPC: 0.514936 (Simulation time: 0 hr 19 min 44 sec) 
Heartbeat CPU 0 instructions: 14000001 cycles: 13274712 heartbeat IPC: 0.512806 cumulative IPC: 0.514401 (Simulation time: 0 hr 21 min 32 sec) 
Heartbeat CPU 0 instructions: 15000003 cycles: 15203984 heartbeat IPC: 0.518331 cumulative IPC: 0.515183 (Simulation time: 0 hr 23 min 18 sec) 
Heartbeat CPU 0 instructions: 16000000 cycles: 17139429 heartbeat IPC: 0.516675 cumulative IPC: 0.515431 (Simulation time: 0 hr 25 min 7 sec) 
Heartbeat CPU 0 instructions: 17000003 cycles: 19081931 heartbeat IPC: 0.514802 cumulative IPC: 0.515341 (Simulation time: 0 hr 26 min 58 sec) 
Heartbeat CPU 0 instructions: 18000002 cycles: 21029689 heartbeat IPC: 0.51341 cumulative IPC: 0.515099 (Simulation time: 0 hr 28 min 48 sec) 
Heartbeat CPU 0 instructions: 19000000 cycles: 22986983 heartbeat IPC: 0.510908 cumulative IPC: 0.51463 (Simulation time: 0 hr 30 min 35 sec) 
Heartbeat CPU 0 instructions: 20000000 cycles: 24957248 heartbeat IPC: 0.507546 cumulative IPC: 0.513912 (Simulation time: 0 hr 32 min 23 sec) 
Heartbeat CPU 0 instructions: 21000002 cycles: 26875347 heartbeat IPC: 0.521351 cumulative IPC: 0.51458 (Simulation time: 0 hr 34 min 13 sec) 
Heartbeat CPU 0 instructions: 22000003 cycles: 28831228 heartbeat IPC: 0.511279 cumulative IPC: 0.514303 (Simulation time: 0 hr 36 min 9 sec) 
Heartbeat CPU 0 instructions: 23000001 cycles: 30761638 heartbeat IPC: 0.518024 cumulative IPC: 0.514588 (Simulation time: 0 hr 38 min 1 sec) 
Heartbeat CPU 0 instructions: 24000000 cycles: 32723987 heartbeat IPC: 0.509593 cumulative IPC: 0.514228 (Simulation time: 0 hr 39 min 51 sec) 
Heartbeat CPU 0 instructions: 25000003 cycles: 34659900 heartbeat IPC: 0.516554 cumulative IPC: 0.514382 (Simulation time: 0 hr 41 min 42 sec) 
Heartbeat CPU 0 instructions: 26000003 cycles: 36584743 heartbeat IPC: 0.519523 cumulative IPC: 0.5147 (Simulation time: 0 hr 43 min 31 sec) 
Heartbeat CPU 0 instructions: 27000001 cycles: 38509493 heartbeat IPC: 0.519547 cumulative IPC: 0.514983 (Simulation time: 0 hr 45 min 20 sec) 
Heartbeat CPU 0 instructions: 28000000 cycles: 40423575 heartbeat IPC: 0.522443 cumulative IPC: 0.515392 (Simulation time: 0 hr 47 min 0 sec) 
Heartbeat CPU 0 instructions: 29000003 cycles: 42373955 heartbeat IPC: 0.512722 cumulative IPC: 0.515251 (Simulation time: 0 hr 48 min 38 sec) 
Heartbeat CPU 0 instructions: 30000000 cycles: 44292427 heartbeat IPC: 0.521247 cumulative IPC: 0.515547 (Simulation time: 0 hr 50 min 18 sec) 
Heartbeat CPU 0 instructions: 31000000 cycles: 46227877 heartbeat IPC: 0.516676 cumulative IPC: 0.515601 (Simulation time: 0 hr 51 min 58 sec) 
Heartbeat CPU 0 instructions: 32000000 cycles: 48145742 heartbeat IPC: 0.521413 cumulative IPC: 0.515862 (Simulation time: 0 hr 53 min 31 sec) 
Heartbeat CPU 0 instructions: 33000000 cycles: 50075714 heartbeat IPC: 0.518142 cumulative IPC: 0.515961 (Simulation time: 0 hr 55 min 11 sec) 
Heartbeat CPU 0 instructions: 34000002 cycles: 51984019 heartbeat IPC: 0.524026 cumulative IPC: 0.516292 (Simulation time: 0 hr 56 min 52 sec) 
Heartbeat CPU 0 instructions: 35000001 cycles: 53920810 heartbeat IPC: 0.516317 cumulative IPC: 0.516293 (Simulation time: 0 hr 58 min 37 sec) 
Heartbeat CPU 0 instructions: 36000000 cycles: 55836160 heartbeat IPC: 0.522097 cumulative IPC: 0.516514 (Simulation time: 1 hr 0 min 14 sec) 
Heartbeat CPU 0 instructions: 37000000 cycles: 57764666 heartbeat IPC: 0.518536 cumulative IPC: 0.516588 (Simulation time: 1 hr 1 min 56 sec) 
Heartbeat CPU 0 instructions: 38000001 cycles: 59701590 heartbeat IPC: 0.516283 cumulative IPC: 0.516577 (Simulation time: 1 hr 3 min 41 sec) 
Heartbeat CPU 0 instructions: 39000000 cycles: 61638076 heartbeat IPC: 0.516399 cumulative IPC: 0.516571 (Simulation time: 1 hr 5 min 22 sec) 
Heartbeat CPU 0 instructions: 40000000 cycles: 63558714 heartbeat IPC: 0.52066 cumulative IPC: 0.516707 (Simulation time: 1 hr 7 min 6 sec) 
Heartbeat CPU 0 instructions: 41000002 cycles: 65501740 heartbeat IPC: 0.514662 cumulative IPC: 0.51664 (Simulation time: 1 hr 8 min 50 sec) 
Heartbeat CPU 0 instructions: 42000001 cycles: 67420873 heartbeat IPC: 0.521068 cumulative IPC: 0.516778 (Simulation time: 1 hr 10 min 29 sec) 
Heartbeat CPU 0 instructions: 43000000 cycles: 69343014 heartbeat IPC: 0.520253 cumulative IPC: 0.516882 (Simulation time: 1 hr 12 min 14 sec) 
Heartbeat CPU 0 instructions: 44000000 cycles: 72308369 heartbeat IPC: 0.337228 cumulative IPC: 0.508908 (Simulation time: 1 hr 14 min 21 sec) 
Heartbeat CPU 0 instructions: 45000002 cycles: 75678491 heartbeat IPC: 0.296726 cumulative IPC: 0.498719 (Simulation time: 1 hr 16 min 40 sec) 
Heartbeat CPU 0 instructions: 46000001 cycles: 78966915 heartbeat IPC: 0.304097 cumulative IPC: 0.490008 (Simulation time: 1 hr 18 min 45 sec) 
Heartbeat CPU 0 instructions: 47000000 cycles: 82294843 heartbeat IPC: 0.300487 cumulative IPC: 0.481795 (Simulation time: 1 hr 21 min 5 sec) 
Heartbeat CPU 0 instructions: 48000000 cycles: 85570074 heartbeat IPC: 0.305322 cumulative IPC: 0.474577 (Simulation time: 1 hr 23 min 28 sec) 
Heartbeat CPU 0 instructions: 49000003 cycles: 88811676 heartbeat IPC: 0.30849 cumulative IPC: 0.468114 (Simulation time: 1 hr 25 min 50 sec) 
Heartbeat CPU 0 instructions: 50000002 cycles: 91776138 heartbeat IPC: 0.337329 cumulative IPC: 0.463621 (Simulation time: 1 hr 28 min 9 sec) 
Heartbeat CPU 0 instructions: 51000002 cycles: 93626917 heartbeat IPC: 0.540313 cumulative IPC: 0.465231 (Simulation time: 1 hr 29 min 51 sec) 
Heartbeat CPU 0 instructions: 52000000 cycles: 96165587 heartbeat IPC: 0.393906 cumulative IPC: 0.463234 (Simulation time: 1 hr 31 min 43 sec) 
Heartbeat CPU 0 instructions: 53000001 cycles: 99072001 heartbeat IPC: 0.344067 cumulative IPC: 0.459533 (Simulation time: 1 hr 33 min 38 sec) 
Heartbeat CPU 0 instructions: 54000003 cycles: 101968822 heartbeat IPC: 0.345207 cumulative IPC: 0.4561 (Simulation time: 1 hr 35 min 30 sec) 
Heartbeat CPU 0 instructions: 55000003 cycles: 104862423 heartbeat IPC: 0.34559 cumulative IPC: 0.452882 (Simulation time: 1 hr 37 min 21 sec) 
Heartbeat CPU 0 instructions: 56000000 cycles: 107744129 heartbeat IPC: 0.347016 cumulative IPC: 0.449898 (Simulation time: 1 hr 39 min 9 sec) 
Heartbeat CPU 0 instructions: 57000000 cycles: 110636765 heartbeat IPC: 0.345705 cumulative IPC: 0.447031 (Simulation time: 1 hr 40 min 55 sec) 
Heartbeat CPU 0 instructions: 58000001 cycles: 113517741 heartbeat IPC: 0.347105 cumulative IPC: 0.444366 (Simulation time: 1 hr 42 min 43 sec) 
Heartbeat CPU 0 instructions: 59000001 cycles: 116414708 heartbeat IPC: 0.345189 cumulative IPC: 0.441776 (Simulation time: 1 hr 44 min 38 sec) 
Heartbeat CPU 0 instructions: 60000000 cycles: 119314906 heartbeat IPC: 0.344804 cumulative IPC: 0.439305 (Simulation time: 1 hr 46 min 26 sec) 
Heartbeat CPU 0 instructions: 61000002 cycles: 122204486 heartbeat IPC: 0.346072 cumulative IPC: 0.436996 (Simulation time: 1 hr 48 min 17 sec) 
Heartbeat CPU 0 instructions: 62000003 cycles: 125096044 heartbeat IPC: 0.345835 cumulative IPC: 0.434792 (Simulation time: 1 hr 50 min 5 sec) 
Heartbeat CPU 0 instructions: 63000000 cycles: 128007628 heartbeat IPC: 0.343455 cumulative IPC: 0.432621 (Simulation time: 1 hr 51 min 59 sec) 
Heartbeat CPU 0 instructions: 64000000 cycles: 130906724 heartbeat IPC: 0.344935 cumulative IPC: 0.430594 (Simulation time: 1 hr 53 min 47 sec) 
Heartbeat CPU 0 instructions: 65000000 cycles: 133806343 heartbeat IPC: 0.344873 cumulative IPC: 0.428657 (Simulation time: 1 hr 55 min 38 sec) 
Heartbeat CPU 0 instructions: 66000001 cycles: 136697931 heartbeat IPC: 0.345831 cumulative IPC: 0.426832 (Simulation time: 1 hr 57 min 31 sec) 
Heartbeat CPU 0 instructions: 67000002 cycles: 139580498 heartbeat IPC: 0.346913 cumulative IPC: 0.425114 (Simulation time: 1 hr 59 min 22 sec) 
Heartbeat CPU 0 instructions: 68000000 cycles: 142477676 heartbeat IPC: 0.345163 cumulative IPC: 0.423423 (Simulation time: 2 hr 1 min 14 sec) 
Heartbeat CPU 0 instructions: 69000003 cycles: 145356956 heartbeat IPC: 0.34731 cumulative IPC: 0.421856 (Simulation time: 2 hr 3 min 11 sec) 
Heartbeat CPU 0 instructions: 70000000 cycles: 148252692 heartbeat IPC: 0.345334 cumulative IPC: 0.420303 (Simulation time: 2 hr 5 min 8 sec) 
Heartbeat CPU 0 instructions: 71000000 cycles: 151150519 heartbeat IPC: 0.345086 cumulative IPC: 0.418807 (Simulation time: 2 hr 7 min 3 sec) 
Heartbeat CPU 0 instructions: 72000000 cycles: 154042115 heartbeat IPC: 0.34583 cumulative IPC: 0.417386 (Simulation time: 2 hr 9 min 11 sec) 
Heartbeat CPU 0 instructions: 73000001 cycles: 156918011 heartbeat IPC: 0.347718 cumulative IPC: 0.416063 (Simulation time: 2 hr 11 min 8 sec) 
Heartbeat CPU 0 instructions: 74000002 cycles: 158983859 heartbeat IPC: 0.484063 cumulative IPC: 0.416978 (Simulation time: 2 hr 13 min 2 sec) 
Heartbeat CPU 0 instructions: 75000002 cycles: 161035311 heartbeat IPC: 0.48746 cumulative IPC: 0.417908 (Simulation time: 2 hr 14 min 54 sec) 
Heartbeat CPU 0 instructions: 76000000 cycles: 163061203 heartbeat IPC: 0.493609 cumulative IPC: 0.418881 (Simulation time: 2 hr 16 min 57 sec) 
Heartbeat CPU 0 instructions: 77000000 cycles: 165070617 heartbeat IPC: 0.497658 cumulative IPC: 0.419873 (Simulation time: 2 hr 18 min 44 sec) 
Heartbeat CPU 0 instructions: 78000002 cycles: 167102023 heartbeat IPC: 0.492271 cumulative IPC: 0.420783 (Simulation time: 2 hr 20 min 30 sec) 
Heartbeat CPU 0 instructions: 79000001 cycles: 169135029 heartbeat IPC: 0.491882 cumulative IPC: 0.421667 (Simulation time: 2 hr 22 min 22 sec) 
Heartbeat CPU 0 instructions: 80000000 cycles: 171178481 heartbeat IPC: 0.489368 cumulative IPC: 0.422502 (Simulation time: 2 hr 24 min 10 sec) 
Heartbeat CPU 0 instructions: 81000003 cycles: 173202983 heartbeat IPC: 0.49395 cumulative IPC: 0.423364 (Simulation time: 2 hr 25 min 56 sec) 
Heartbeat CPU 0 instructions: 82000000 cycles: 175216658 heartbeat IPC: 0.496603 cumulative IPC: 0.424233 (Simulation time: 2 hr 27 min 36 sec) 
Heartbeat CPU 0 instructions: 83000002 cycles: 177260488 heartbeat IPC: 0.489278 cumulative IPC: 0.425007 (Simulation time: 2 hr 29 min 19 sec) 
Heartbeat CPU 0 instructions: 84000000 cycles: 179300357 heartbeat IPC: 0.490227 cumulative IPC: 0.425773 (Simulation time: 2 hr 30 min 47 sec) 
Heartbeat CPU 0 instructions: 85000001 cycles: 181312533 heartbeat IPC: 0.496975 cumulative IPC: 0.426588 (Simulation time: 2 hr 32 min 12 sec) 
Heartbeat CPU 0 instructions: 86000000 cycles: 183348601 heartbeat IPC: 0.491142 cumulative IPC: 0.427327 (Simulation time: 2 hr 33 min 33 sec) 
Heartbeat CPU 0 instructions: 87000000 cycles: 185369998 heartbeat IPC: 0.494707 cumulative IPC: 0.428084 (Simulation time: 2 hr 34 min 55 sec) 
Heartbeat CPU 0 instructions: 88000000 cycles: 187406715 heartbeat IPC: 0.490986 cumulative IPC: 0.428788 (Simulation time: 2 hr 36 min 10 sec) 
Heartbeat CPU 0 instructions: 89000002 cycles: 189458391 heartbeat IPC: 0.487407 cumulative IPC: 0.429442 (Simulation time: 2 hr 37 min 25 sec) 
Heartbeat CPU 0 instructions: 90000002 cycles: 191498575 heartbeat IPC: 0.490152 cumulative IPC: 0.430108 (Simulation time: 2 hr 38 min 36 sec) 
Heartbeat CPU 0 instructions: 91000003 cycles: 193536338 heartbeat IPC: 0.490735 cumulative IPC: 0.430765 (Simulation time: 2 hr 39 min 50 sec) 
Heartbeat CPU 0 instructions: 92000000 cycles: 195576764 heartbeat IPC: 0.490092 cumulative IPC: 0.431402 (Simulation time: 2 hr 41 min 4 sec) 
Heartbeat CPU 0 instructions: 93000003 cycles: 197610728 heartbeat IPC: 0.491652 cumulative IPC: 0.43204 (Simulation time: 2 hr 42 min 10 sec) 
Heartbeat CPU 0 instructions: 94000001 cycles: 199630762 heartbeat IPC: 0.49504 cumulative IPC: 0.432695 (Simulation time: 2 hr 43 min 16 sec) 
Heartbeat CPU 0 instructions: 95000000 cycles: 201654742 heartbeat IPC: 0.494076 cumulative IPC: 0.433328 (Simulation time: 2 hr 44 min 24 sec) 
Heartbeat CPU 0 instructions: 96000000 cycles: 203678255 heartbeat IPC: 0.49419 cumulative IPC: 0.43395 (Simulation time: 2 hr 45 min 34 sec) 
Heartbeat CPU 0 instructions: 97000002 cycles: 205709497 heartbeat IPC: 0.492311 cumulative IPC: 0.434542 (Simulation time: 2 hr 46 min 46 sec) 
Heartbeat CPU 0 instructions: 98000003 cycles: 207745773 heartbeat IPC: 0.491093 cumulative IPC: 0.435111 (Simulation time: 2 hr 47 min 57 sec) 
Heartbeat CPU 0 instructions: 99000000 cycles: 209780992 heartbeat IPC: 0.491346 cumulative IPC: 0.435672 (Simulation time: 2 hr 48 min 58 sec) 
Heartbeat CPU 0 instructions: 100000000 cycles: 211826151 heartbeat IPC: 0.48896 cumulative IPC: 0.4362 (Simulation time: 2 hr 49 min 56 sec) 
Heartbeat CPU 0 instructions: 101000000 cycles: 213852918 heartbeat IPC: 0.493397 cumulative IPC: 0.436756 (Simulation time: 2 hr 50 min 50 sec) 
Heartbeat CPU 0 instructions: 102000000 cycles: 215877663 heartbeat IPC: 0.493889 cumulative IPC: 0.437306 (Simulation time: 2 hr 51 min 43 sec) 
Heartbeat CPU 0 instructions: 103000002 cycles: 217907550 heartbeat IPC: 0.492639 cumulative IPC: 0.437835 (Simulation time: 2 hr 52 min 32 sec) 
Heartbeat CPU 0 instructions: 104000000 cycles: 219955052 heartbeat IPC: 0.488399 cumulative IPC: 0.438318 (Simulation time: 2 hr 53 min 20 sec) 
Heartbeat CPU 0 instructions: 105000003 cycles: 222004490 heartbeat IPC: 0.48794 cumulative IPC: 0.438787 (Simulation time: 2 hr 54 min 7 sec) 
Heartbeat CPU 0 instructions: 106000002 cycles: 224039104 heartbeat IPC: 0.491493 cumulative IPC: 0.439278 (Simulation time: 2 hr 54 min 44 sec) 
Heartbeat CPU 0 instructions: 107000000 cycles: 226087508 heartbeat IPC: 0.488184 cumulative IPC: 0.439732 (Simulation time: 2 hr 55 min 18 sec) 
Heartbeat CPU 0 instructions: 108000000 cycles: 228108468 heartbeat IPC: 0.494814 cumulative IPC: 0.440232 (Simulation time: 2 hr 55 min 49 sec) 
Heartbeat CPU 0 instructions: 109000002 cycles: 230122299 heartbeat IPC: 0.496567 cumulative IPC: 0.440737 (Simulation time: 2 hr 56 min 20 sec) 
Heartbeat CPU 0 instructions: 110000000 cycles: 232147699 heartbeat IPC: 0.493729 cumulative IPC: 0.441211 (Simulation time: 2 hr 56 min 50 sec) 
Finished CPU 0 instructions: 100000003 cycles: 226649015 cummulative IPC: 0.441211 (Simulation time: 2 hr 56 min 50 sec) 

ChampSim completed all CPUs

Region of Interest Statistics

CPU 0 cummulative IPC: 0.441211 instructions: 100000003 cycles: 226649015
LLC TOTAL     ACCESS:    2838711  HIT:        484  MISS:    2838227
LLC LOAD      ACCESS:    1956031  HIT:        147  MISS:    1955884
LLC RFO       ACCESS:     140009  HIT:         42  MISS:     139967
LLC PREFETCH  ACCESS:          0  HIT:          0  MISS:          0
LLC WRITEBACK ACCESS:     742671  HIT:        295  MISS:     742376
