
*** ChampSim Multicore Out-of-Order Simulator ***

Warmup Instructions: 10000000
Simulation Instructions: 100000000
Configuration: 1
Number of CPUs: 1
LLC sets: 2048
LLC ways: 16
Off-chip DRAM Channels: 1 Width: 64-bit Data Rate: 1600 MT/s

CPU 0 runs /datasets/cs240c-wi22-a00-public/data/Assignment2-gz/leslie3d_1116B.trace.gz
config 1, num_core 1, llc_sets 2048
Heartbeat CPU 0 instructions: 1000001 cycles: 532936 heartbeat IPC: 1.8764 cumulative IPC: 1.8764 (Simulation time: 0 hr 1 min 37 sec) 
Heartbeat CPU 0 instructions: 2000003 cycles: 1066410 heartbeat IPC: 1.87451 cumulative IPC: 1.87545 (Simulation time: 0 hr 3 min 10 sec) 
Heartbeat CPU 0 instructions: 3000003 cycles: 1600525 heartbeat IPC: 1.87226 cumulative IPC: 1.87439 (Simulation time: 0 hr 4 min 44 sec) 
Heartbeat CPU 0 instructions: 4000000 cycles: 2133415 heartbeat IPC: 1.87655 cumulative IPC: 1.87493 (Simulation time: 0 hr 6 min 17 sec) 
Heartbeat CPU 0 instructions: 5000001 cycles: 2666039 heartbeat IPC: 1.8775 cumulative IPC: 1.87544 (Simulation time: 0 hr 7 min 55 sec) 
Heartbeat CPU 0 instructions: 6000001 cycles: 3199178 heartbeat IPC: 1.87568 cumulative IPC: 1.87548 (Simulation time: 0 hr 9 min 28 sec) 
Heartbeat CPU 0 instructions: 7000001 cycles: 3732573 heartbeat IPC: 1.87478 cumulative IPC: 1.87538 (Simulation time: 0 hr 11 min 2 sec) 
Heartbeat CPU 0 instructions: 8000000 cycles: 4266236 heartbeat IPC: 1.87384 cumulative IPC: 1.87519 (Simulation time: 0 hr 12 min 32 sec) 
Heartbeat CPU 0 instructions: 9000003 cycles: 4798809 heartbeat IPC: 1.87768 cumulative IPC: 1.87547 (Simulation time: 0 hr 14 min 3 sec) 
Heartbeat CPU 0 instructions: 10000001 cycles: 5331573 heartbeat IPC: 1.877 cumulative IPC: 1.87562 (Simulation time: 0 hr 15 min 29 sec) 

Warmup complete CPU 0 instructions: 10000001 cycles: 5331573 (Simulation time: 0 hr 15 min 29 sec) 

Heartbeat CPU 0 instructions: 11000001 cycles: 7010399 heartbeat IPC: 0.595654 cumulative IPC: 0.595654 (Simulation time: 0 hr 17 min 10 sec) 
Heartbeat CPU 0 instructions: 12000000 cycles: 8628995 heartbeat IPC: 0.617819 cumulative IPC: 0.606534 (Simulation time: 0 hr 18 min 53 sec) 
Heartbeat CPU 0 instructions: 13000001 cycles: 10258096 heartbeat IPC: 0.613836 cumulative IPC: 0.608949 (Simulation time: 0 hr 20 min 34 sec) 
Heartbeat CPU 0 instructions: 14000003 cycles: 11888681 heartbeat IPC: 0.613278 cumulative IPC: 0.610025 (Simulation time: 0 hr 22 min 18 sec) 
Heartbeat CPU 0 instructions: 15000000 cycles: 13554695 heartbeat IPC: 0.600233 cumulative IPC: 0.608041 (Simulation time: 0 hr 24 min 2 sec) 
Heartbeat CPU 0 instructions: 16000000 cycles: 15188025 heartbeat IPC: 0.612246 cumulative IPC: 0.608738 (Simulation time: 0 hr 25 min 48 sec) 
Heartbeat CPU 0 instructions: 17000003 cycles: 16811874 heartbeat IPC: 0.615823 cumulative IPC: 0.60974 (Simulation time: 0 hr 27 min 36 sec) 
Heartbeat CPU 0 instructions: 18000001 cycles: 18481813 heartbeat IPC: 0.598823 cumulative IPC: 0.608354 (Simulation time: 0 hr 29 min 37 sec) 
Heartbeat CPU 0 instructions: 19000001 cycles: 20147668 heartbeat IPC: 0.600292 cumulative IPC: 0.607448 (Simulation time: 0 hr 31 min 27 sec) 
Heartbeat CPU 0 instructions: 20000000 cycles: 21784091 heartbeat IPC: 0.611088 cumulative IPC: 0.60781 (Simulation time: 0 hr 33 min 12 sec) 
Heartbeat CPU 0 instructions: 21000000 cycles: 23442559 heartbeat IPC: 0.602966 cumulative IPC: 0.607366 (Simulation time: 0 hr 34 min 55 sec) 
Heartbeat CPU 0 instructions: 22000000 cycles: 25099132 heartbeat IPC: 0.603656 cumulative IPC: 0.607055 (Simulation time: 0 hr 36 min 38 sec) 
Heartbeat CPU 0 instructions: 23000003 cycles: 26748195 heartbeat IPC: 0.606407 cumulative IPC: 0.607005 (Simulation time: 0 hr 38 min 26 sec) 
Heartbeat CPU 0 instructions: 24000000 cycles: 28370285 heartbeat IPC: 0.616487 cumulative IPC: 0.607673 (Simulation time: 0 hr 40 min 10 sec) 
Heartbeat CPU 0 instructions: 25000002 cycles: 29995334 heartbeat IPC: 0.615367 cumulative IPC: 0.60818 (Simulation time: 0 hr 41 min 54 sec) 
Heartbeat CPU 0 instructions: 26000002 cycles: 31684077 heartbeat IPC: 0.592156 cumulative IPC: 0.607153 (Simulation time: 0 hr 43 min 36 sec) 
Heartbeat CPU 0 instructions: 27000001 cycles: 33340243 heartbeat IPC: 0.603804 cumulative IPC: 0.606955 (Simulation time: 0 hr 45 min 17 sec) 
Heartbeat CPU 0 instructions: 28000000 cycles: 34965327 heartbeat IPC: 0.615352 cumulative IPC: 0.607415 (Simulation time: 0 hr 46 min 55 sec) 
Heartbeat CPU 0 instructions: 29000001 cycles: 36597904 heartbeat IPC: 0.612529 cumulative IPC: 0.607682 (Simulation time: 0 hr 48 min 33 sec) 
Heartbeat CPU 0 instructions: 30000000 cycles: 38300502 heartbeat IPC: 0.587337 cumulative IPC: 0.606632 (Simulation time: 0 hr 50 min 20 sec) 
Heartbeat CPU 0 instructions: 31000001 cycles: 39959792 heartbeat IPC: 0.602668 cumulative IPC: 0.606442 (Simulation time: 0 hr 51 min 59 sec) 
Heartbeat CPU 0 instructions: 32000000 cycles: 41622045 heartbeat IPC: 0.601593 cumulative IPC: 0.60622 (Simulation time: 0 hr 53 min 39 sec) 
Heartbeat CPU 0 instructions: 33000002 cycles: 43292023 heartbeat IPC: 0.598812 cumulative IPC: 0.605894 (Simulation time: 0 hr 55 min 14 sec) 
Heartbeat CPU 0 instructions: 34000002 cycles: 44982056 heartbeat IPC: 0.591704 cumulative IPC: 0.605289 (Simulation time: 0 hr 56 min 51 sec) 
Heartbeat CPU 0 instructions: 35000000 cycles: 46664995 heartbeat IPC: 0.594197 cumulative IPC: 0.604837 (Simulation time: 0 hr 58 min 36 sec) 
Heartbeat CPU 0 instructions: 36000000 cycles: 48329559 heartbeat IPC: 0.600758 cumulative IPC: 0.604679 (Simulation time: 1 hr 0 min 14 sec) 
Heartbeat CPU 0 instructions: 37000003 cycles: 50218403 heartbeat IPC: 0.529426 cumulative IPC: 0.601513 (Simulation time: 1 hr 1 min 57 sec) 
Heartbeat CPU 0 instructions: 38000003 cycles: 52209243 heartbeat IPC: 0.502301 cumulative IPC: 0.597299 (Simulation time: 1 hr 3 min 33 sec) 
Heartbeat CPU 0 instructions: 39000003 cycles: 54155188 heartbeat IPC: 0.513889 cumulative IPC: 0.593975 (Simulation time: 1 hr 5 min 11 sec) 
Heartbeat CPU 0 instructions: 40000000 cycles: 56119108 heartbeat IPC: 0.509184 cumulative IPC: 0.590696 (Simulation time: 1 hr 7 min 0 sec) 
Heartbeat CPU 0 instructions: 41000002 cycles: 58076780 heartbeat IPC: 0.510812 cumulative IPC: 0.587731 (Simulation time: 1 hr 8 min 37 sec) 
Heartbeat CPU 0 instructions: 42000001 cycles: 60037566 heartbeat IPC: 0.509999 cumulative IPC: 0.584945 (Simulation time: 1 hr 10 min 18 sec) 
Heartbeat CPU 0 instructions: 43000003 cycles: 61967536 heartbeat IPC: 0.518144 cumulative IPC: 0.582669 (Simulation time: 1 hr 11 min 58 sec) 
Heartbeat CPU 0 instructions: 44000000 cycles: 63934370 heartbeat IPC: 0.50843 cumulative IPC: 0.580177 (Simulation time: 1 hr 13 min 43 sec) 
Heartbeat CPU 0 instructions: 45000002 cycles: 65873319 heartbeat IPC: 0.515744 cumulative IPC: 0.578113 (Simulation time: 1 hr 15 min 26 sec) 
Heartbeat CPU 0 instructions: 46000002 cycles: 67835342 heartbeat IPC: 0.509678 cumulative IPC: 0.575965 (Simulation time: 1 hr 17 min 11 sec) 
Heartbeat CPU 0 instructions: 47000001 cycles: 69799399 heartbeat IPC: 0.50915 cumulative IPC: 0.57393 (Simulation time: 1 hr 18 min 57 sec) 
Heartbeat CPU 0 instructions: 48000000 cycles: 71746876 heartbeat IPC: 0.513484 cumulative IPC: 0.572157 (Simulation time: 1 hr 20 min 42 sec) 
Heartbeat CPU 0 instructions: 49000002 cycles: 74190955 heartbeat IPC: 0.409153 cumulative IPC: 0.566372 (Simulation time: 1 hr 22 min 38 sec) 
Heartbeat CPU 0 instructions: 50000000 cycles: 76989525 heartbeat IPC: 0.357325 cumulative IPC: 0.558207 (Simulation time: 1 hr 24 min 45 sec) 
Heartbeat CPU 0 instructions: 51000003 cycles: 79738194 heartbeat IPC: 0.363814 cumulative IPC: 0.551026 (Simulation time: 1 hr 26 min 47 sec) 
Heartbeat CPU 0 instructions: 52000000 cycles: 82559101 heartbeat IPC: 0.354495 cumulative IPC: 0.543848 (Simulation time: 1 hr 28 min 52 sec) 
Heartbeat CPU 0 instructions: 53000003 cycles: 85598622 heartbeat IPC: 0.329 cumulative IPC: 0.535712 (Simulation time: 1 hr 30 min 57 sec) 
Heartbeat CPU 0 instructions: 54000000 cycles: 89713230 heartbeat IPC: 0.243036 cumulative IPC: 0.52144 (Simulation time: 1 hr 33 min 25 sec) 
Heartbeat CPU 0 instructions: 55000002 cycles: 93767169 heartbeat IPC: 0.246674 cumulative IPC: 0.508845 (Simulation time: 1 hr 35 min 53 sec) 
Heartbeat CPU 0 instructions: 56000000 cycles: 97866911 heartbeat IPC: 0.243917 cumulative IPC: 0.497107 (Simulation time: 1 hr 38 min 21 sec) 
Heartbeat CPU 0 instructions: 57000002 cycles: 101896864 heartbeat IPC: 0.248142 cumulative IPC: 0.486717 (Simulation time: 1 hr 40 min 50 sec) 
Heartbeat CPU 0 instructions: 58000001 cycles: 105757469 heartbeat IPC: 0.259026 cumulative IPC: 0.477964 (Simulation time: 1 hr 43 min 11 sec) 
Heartbeat CPU 0 instructions: 59000000 cycles: 107809631 heartbeat IPC: 0.48729 cumulative IPC: 0.478151 (Simulation time: 1 hr 45 min 6 sec) 
Heartbeat CPU 0 instructions: 60000000 cycles: 109860717 heartbeat IPC: 0.487547 cumulative IPC: 0.478335 (Simulation time: 1 hr 46 min 59 sec) 
Heartbeat CPU 0 instructions: 61000003 cycles: 111971266 heartbeat IPC: 0.473812 cumulative IPC: 0.478246 (Simulation time: 1 hr 48 min 50 sec) 
Heartbeat CPU 0 instructions: 62000002 cycles: 114108442 heartbeat IPC: 0.467907 cumulative IPC: 0.478043 (Simulation time: 1 hr 50 min 43 sec) 
Heartbeat CPU 0 instructions: 63000003 cycles: 116153500 heartbeat IPC: 0.488984 cumulative IPC: 0.478245 (Simulation time: 1 hr 52 min 39 sec) 
Heartbeat CPU 0 instructions: 64000000 cycles: 118234704 heartbeat IPC: 0.48049 cumulative IPC: 0.478286 (Simulation time: 1 hr 54 min 34 sec) 
Heartbeat CPU 0 instructions: 65000001 cycles: 120561577 heartbeat IPC: 0.429762 cumulative IPC: 0.477306 (Simulation time: 1 hr 56 min 29 sec) 
Heartbeat CPU 0 instructions: 66000000 cycles: 122515904 heartbeat IPC: 0.511685 cumulative IPC: 0.47788 (Simulation time: 1 hr 58 min 23 sec) 
Heartbeat CPU 0 instructions: 67000001 cycles: 124533752 heartbeat IPC: 0.495578 cumulative IPC: 0.478179 (Simulation time: 2 hr 0 min 18 sec) 
Heartbeat CPU 0 instructions: 68000000 cycles: 126610434 heartbeat IPC: 0.481537 cumulative IPC: 0.478237 (Simulation time: 2 hr 2 min 7 sec) 
Heartbeat CPU 0 instructions: 69000003 cycles: 128598323 heartbeat IPC: 0.503048 cumulative IPC: 0.478637 (Simulation time: 2 hr 4 min 3 sec) 
Heartbeat CPU 0 instructions: 70000000 cycles: 130523485 heartbeat IPC: 0.519435 cumulative IPC: 0.479264 (Simulation time: 2 hr 6 min 0 sec) 
Heartbeat CPU 0 instructions: 71000002 cycles: 132474804 heartbeat IPC: 0.512475 cumulative IPC: 0.479774 (Simulation time: 2 hr 7 min 55 sec) 
Heartbeat CPU 0 instructions: 72000000 cycles: 134474498 heartbeat IPC: 0.500076 cumulative IPC: 0.480088 (Simulation time: 2 hr 9 min 44 sec) 
Heartbeat CPU 0 instructions: 73000000 cycles: 136410929 heartbeat IPC: 0.516414 cumulative IPC: 0.480625 (Simulation time: 2 hr 11 min 37 sec) 
Heartbeat CPU 0 instructions: 74000000 cycles: 138369792 heartbeat IPC: 0.5105 cumulative IPC: 0.481065 (Simulation time: 2 hr 13 min 36 sec) 
Heartbeat CPU 0 instructions: 75000002 cycles: 140399167 heartbeat IPC: 0.492764 cumulative IPC: 0.481241 (Simulation time: 2 hr 15 min 28 sec) 
Heartbeat CPU 0 instructions: 76000000 cycles: 142181990 heartbeat IPC: 0.560907 cumulative IPC: 0.482278 (Simulation time: 2 hr 17 min 25 sec) 
Heartbeat CPU 0 instructions: 77000001 cycles: 144095941 heartbeat IPC: 0.52248 cumulative IPC: 0.482833 (Simulation time: 2 hr 19 min 22 sec) 
Heartbeat CPU 0 instructions: 78000000 cycles: 146056218 heartbeat IPC: 0.510131 cumulative IPC: 0.483213 (Simulation time: 2 hr 21 min 24 sec) 
Heartbeat CPU 0 instructions: 79000000 cycles: 147907644 heartbeat IPC: 0.540124 cumulative IPC: 0.483952 (Simulation time: 2 hr 23 min 17 sec) 
Heartbeat CPU 0 instructions: 80000000 cycles: 149664728 heartbeat IPC: 0.569125 cumulative IPC: 0.484989 (Simulation time: 2 hr 25 min 11 sec) 
Heartbeat CPU 0 instructions: 81000002 cycles: 151564377 heartbeat IPC: 0.526414 cumulative IPC: 0.485527 (Simulation time: 2 hr 27 min 5 sec) 
Heartbeat CPU 0 instructions: 82000000 cycles: 153575614 heartbeat IPC: 0.497205 cumulative IPC: 0.485686 (Simulation time: 2 hr 28 min 48 sec) 
Heartbeat CPU 0 instructions: 83000003 cycles: 155366054 heartbeat IPC: 0.558524 cumulative IPC: 0.486555 (Simulation time: 2 hr 30 min 32 sec) 
Heartbeat CPU 0 instructions: 84000000 cycles: 157103460 heartbeat IPC: 0.575569 cumulative IPC: 0.487574 (Simulation time: 2 hr 32 min 11 sec) 
Heartbeat CPU 0 instructions: 85000003 cycles: 159118084 heartbeat IPC: 0.496372 cumulative IPC: 0.487689 (Simulation time: 2 hr 33 min 36 sec) 
Heartbeat CPU 0 instructions: 86000002 cycles: 160925931 heartbeat IPC: 0.553144 cumulative IPC: 0.48845 (Simulation time: 2 hr 35 min 16 sec) 
Heartbeat CPU 0 instructions: 87000001 cycles: 162681764 heartbeat IPC: 0.56953 cumulative IPC: 0.489354 (Simulation time: 2 hr 36 min 40 sec) 
Heartbeat CPU 0 instructions: 88000000 cycles: 164466418 heartbeat IPC: 0.560332 cumulative IPC: 0.49015 (Simulation time: 2 hr 38 min 1 sec) 
Heartbeat CPU 0 instructions: 89000002 cycles: 166431671 heartbeat IPC: 0.508841 cumulative IPC: 0.490378 (Simulation time: 2 hr 39 min 14 sec) 
Heartbeat CPU 0 instructions: 90000001 cycles: 168223308 heartbeat IPC: 0.558148 cumulative IPC: 0.491124 (Simulation time: 2 hr 40 min 34 sec) 
Heartbeat CPU 0 instructions: 91000000 cycles: 169982330 heartbeat IPC: 0.568497 cumulative IPC: 0.49195 (Simulation time: 2 hr 41 min 50 sec) 
Heartbeat CPU 0 instructions: 92000000 cycles: 171977145 heartbeat IPC: 0.5013 cumulative IPC: 0.492062 (Simulation time: 2 hr 42 min 59 sec) 
Heartbeat CPU 0 instructions: 93000002 cycles: 173748660 heartbeat IPC: 0.56449 cumulative IPC: 0.492824 (Simulation time: 2 hr 44 min 13 sec) 
Heartbeat CPU 0 instructions: 94000003 cycles: 175529367 heartbeat IPC: 0.561575 cumulative IPC: 0.493543 (Simulation time: 2 hr 45 min 25 sec) 
Heartbeat CPU 0 instructions: 95000003 cycles: 177430761 heartbeat IPC: 0.52593 cumulative IPC: 0.493901 (Simulation time: 2 hr 46 min 45 sec) 
Heartbeat CPU 0 instructions: 96000000 cycles: 179333368 heartbeat IPC: 0.525593 cumulative IPC: 0.494248 (Simulation time: 2 hr 47 min 51 sec) 
Heartbeat CPU 0 instructions: 97000000 cycles: 181093977 heartbeat IPC: 0.567985 cumulative IPC: 0.494986 (Simulation time: 2 hr 49 min 0 sec) 
Heartbeat CPU 0 instructions: 98000000 cycles: 182890902 heartbeat IPC: 0.556506 cumulative IPC: 0.495609 (Simulation time: 2 hr 50 min 2 sec) 
Heartbeat CPU 0 instructions: 99000003 cycles: 184838971 heartbeat IPC: 0.51333 cumulative IPC: 0.495801 (Simulation time: 2 hr 50 min 56 sec) 
Heartbeat CPU 0 instructions: 100000000 cycles: 186653782 heartbeat IPC: 0.55102 cumulative IPC: 0.496354 (Simulation time: 2 hr 51 min 48 sec) 
Heartbeat CPU 0 instructions: 101000000 cycles: 188430584 heartbeat IPC: 0.562809 cumulative IPC: 0.496999 (Simulation time: 2 hr 52 min 40 sec) 
Heartbeat CPU 0 instructions: 102000003 cycles: 190399016 heartbeat IPC: 0.50802 cumulative IPC: 0.497116 (Simulation time: 2 hr 53 min 27 sec) 
Heartbeat CPU 0 instructions: 103000000 cycles: 192165845 heartbeat IPC: 0.565984 cumulative IPC: 0.497767 (Simulation time: 2 hr 54 min 9 sec) 
Heartbeat CPU 0 instructions: 104000000 cycles: 193959580 heartbeat IPC: 0.557496 cumulative IPC: 0.498335 (Simulation time: 2 hr 54 min 51 sec) 
Heartbeat CPU 0 instructions: 105000002 cycles: 195759547 heartbeat IPC: 0.555567 cumulative IPC: 0.498876 (Simulation time: 2 hr 55 min 27 sec) 
Heartbeat CPU 0 instructions: 106000003 cycles: 198071846 heartbeat IPC: 0.43247 cumulative IPC: 0.49808 (Simulation time: 2 hr 56 min 2 sec) 
Heartbeat CPU 0 instructions: 107000002 cycles: 200353476 heartbeat IPC: 0.438283 cumulative IPC: 0.49738 (Simulation time: 2 hr 56 min 35 sec) 
Heartbeat CPU 0 instructions: 108000000 cycles: 202673870 heartbeat IPC: 0.43096 cumulative IPC: 0.496599 (Simulation time: 2 hr 57 min 8 sec) 
Heartbeat CPU 0 instructions: 109000003 cycles: 204799352 heartbeat IPC: 0.470483 cumulative IPC: 0.496321 (Simulation time: 2 hr 57 min 38 sec) 
Heartbeat CPU 0 instructions: 110000003 cycles: 206988024 heartbeat IPC: 0.456898 cumulative IPC: 0.495893 (Simulation time: 2 hr 58 min 7 sec) 
Finished CPU 0 instructions: 100000002 cycles: 201656451 cummulative IPC: 0.495893 (Simulation time: 2 hr 58 min 7 sec) 

ChampSim completed all CPUs

Region of Interest Statistics

CPU 0 cummulative IPC: 0.495893 instructions: 100000002 cycles: 201656451
LLC TOTAL     ACCESS:    3572661  HIT:     577764  MISS:    2994897
LLC LOAD      ACCESS:    2180506  HIT:     351064  MISS:    1829442
LLC RFO       ACCESS:     629125  HIT:     106203  MISS:     522922
LLC PREFETCH  ACCESS:          0  HIT:          0  MISS:          0
LLC WRITEBACK ACCESS:     763030  HIT:     120497  MISS:     642533
