
*** ChampSim Multicore Out-of-Order Simulator ***

Warmup Instructions: 10000000
Simulation Instructions: 100000000
Configuration: 1
Number of CPUs: 1
LLC sets: 2048
LLC ways: 16
Off-chip DRAM Channels: 1 Width: 64-bit Data Rate: 1600 MT/s

CPU 0 runs /datasets/cs240c-wi22-a00-public/data/Assignment2-gz/wrf_1228B.trace.gz
config 1, num_core 1, llc_sets 2048
Heartbeat CPU 0 instructions: 1000003 cycles: 590333 heartbeat IPC: 1.69396 cumulative IPC: 1.69396 (Simulation time: 0 hr 1 min 43 sec) 
Heartbeat CPU 0 instructions: 2000002 cycles: 1100527 heartbeat IPC: 1.96004 cumulative IPC: 1.81731 (Simulation time: 0 hr 3 min 19 sec) 
Heartbeat CPU 0 instructions: 3000000 cycles: 1708670 heartbeat IPC: 1.64435 cumulative IPC: 1.75575 (Simulation time: 0 hr 5 min 0 sec) 
Heartbeat CPU 0 instructions: 4000000 cycles: 2319482 heartbeat IPC: 1.63716 cumulative IPC: 1.72452 (Simulation time: 0 hr 6 min 41 sec) 
Heartbeat CPU 0 instructions: 5000000 cycles: 3014433 heartbeat IPC: 1.43895 cumulative IPC: 1.65869 (Simulation time: 0 hr 8 min 20 sec) 
Heartbeat CPU 0 instructions: 6000000 cycles: 3573709 heartbeat IPC: 1.78803 cumulative IPC: 1.67893 (Simulation time: 0 hr 9 min 53 sec) 
Heartbeat CPU 0 instructions: 7000001 cycles: 4126004 heartbeat IPC: 1.81063 cumulative IPC: 1.69656 (Simulation time: 0 hr 11 min 26 sec) 
Heartbeat CPU 0 instructions: 8000000 cycles: 4676861 heartbeat IPC: 1.81535 cumulative IPC: 1.71055 (Simulation time: 0 hr 12 min 58 sec) 
Heartbeat CPU 0 instructions: 9000002 cycles: 5226320 heartbeat IPC: 1.81998 cumulative IPC: 1.72205 (Simulation time: 0 hr 14 min 29 sec) 
Heartbeat CPU 0 instructions: 10000001 cycles: 5778448 heartbeat IPC: 1.81117 cumulative IPC: 1.73057 (Simulation time: 0 hr 15 min 59 sec) 

Warmup complete CPU 0 instructions: 10000001 cycles: 5778448 (Simulation time: 0 hr 15 min 59 sec) 

Heartbeat CPU 0 instructions: 11000003 cycles: 7412690 heartbeat IPC: 0.611906 cumulative IPC: 0.611906 (Simulation time: 0 hr 17 min 42 sec) 
Heartbeat CPU 0 instructions: 12000000 cycles: 9141743 heartbeat IPC: 0.57835 cumulative IPC: 0.594655 (Simulation time: 0 hr 19 min 20 sec) 
Heartbeat CPU 0 instructions: 13000003 cycles: 10777812 heartbeat IPC: 0.611223 cumulative IPC: 0.600077 (Simulation time: 0 hr 20 min 59 sec) 
Heartbeat CPU 0 instructions: 14000002 cycles: 12330487 heartbeat IPC: 0.644049 cumulative IPC: 0.610497 (Simulation time: 0 hr 22 min 34 sec) 
Heartbeat CPU 0 instructions: 15000001 cycles: 13831401 heartbeat IPC: 0.66626 cumulative IPC: 0.62089 (Simulation time: 0 hr 24 min 2 sec) 
Heartbeat CPU 0 instructions: 16000000 cycles: 15336169 heartbeat IPC: 0.664554 cumulative IPC: 0.627765 (Simulation time: 0 hr 25 min 32 sec) 
Heartbeat CPU 0 instructions: 17000002 cycles: 16880013 heartbeat IPC: 0.647735 cumulative IPC: 0.630542 (Simulation time: 0 hr 27 min 1 sec) 
Heartbeat CPU 0 instructions: 18000000 cycles: 18403790 heartbeat IPC: 0.656263 cumulative IPC: 0.633646 (Simulation time: 0 hr 28 min 29 sec) 
Heartbeat CPU 0 instructions: 19000000 cycles: 19896064 heartbeat IPC: 0.670118 cumulative IPC: 0.637501 (Simulation time: 0 hr 30 min 1 sec) 
Heartbeat CPU 0 instructions: 20000000 cycles: 21406150 heartbeat IPC: 0.662214 cumulative IPC: 0.639889 (Simulation time: 0 hr 31 min 32 sec) 
Heartbeat CPU 0 instructions: 21000000 cycles: 22728688 heartbeat IPC: 0.756122 cumulative IPC: 0.648958 (Simulation time: 0 hr 33 min 5 sec) 
Heartbeat CPU 0 instructions: 22000003 cycles: 24007639 heartbeat IPC: 0.781893 cumulative IPC: 0.658285 (Simulation time: 0 hr 34 min 32 sec) 
Heartbeat CPU 0 instructions: 23000003 cycles: 25684533 heartbeat IPC: 0.596341 cumulative IPC: 0.653067 (Simulation time: 0 hr 36 min 16 sec) 
Heartbeat CPU 0 instructions: 24000000 cycles: 27363599 heartbeat IPC: 0.595567 cumulative IPC: 0.648594 (Simulation time: 0 hr 38 min 3 sec) 
Heartbeat CPU 0 instructions: 25000000 cycles: 29090162 heartbeat IPC: 0.579185 cumulative IPC: 0.643453 (Simulation time: 0 hr 39 min 48 sec) 
Heartbeat CPU 0 instructions: 26000002 cycles: 30829303 heartbeat IPC: 0.574998 cumulative IPC: 0.638701 (Simulation time: 0 hr 41 min 30 sec) 
Heartbeat CPU 0 instructions: 27000003 cycles: 32585189 heartbeat IPC: 0.569514 cumulative IPC: 0.634169 (Simulation time: 0 hr 43 min 10 sec) 
Heartbeat CPU 0 instructions: 28000000 cycles: 34173055 heartbeat IPC: 0.629774 cumulative IPC: 0.633923 (Simulation time: 0 hr 44 min 49 sec) 
Heartbeat CPU 0 instructions: 29000003 cycles: 36021757 heartbeat IPC: 0.540922 cumulative IPC: 0.628238 (Simulation time: 0 hr 46 min 37 sec) 
Heartbeat CPU 0 instructions: 30000000 cycles: 38270080 heartbeat IPC: 0.444775 cumulative IPC: 0.615543 (Simulation time: 0 hr 48 min 28 sec) 
Heartbeat CPU 0 instructions: 31000003 cycles: 40956029 heartbeat IPC: 0.372309 cumulative IPC: 0.596971 (Simulation time: 0 hr 50 min 23 sec) 
Heartbeat CPU 0 instructions: 32000000 cycles: 43850810 heartbeat IPC: 0.345448 cumulative IPC: 0.577847 (Simulation time: 0 hr 52 min 12 sec) 
Heartbeat CPU 0 instructions: 33000001 cycles: 46050431 heartbeat IPC: 0.454624 cumulative IPC: 0.571117 (Simulation time: 0 hr 54 min 1 sec) 
Heartbeat CPU 0 instructions: 34000002 cycles: 48251385 heartbeat IPC: 0.454349 cumulative IPC: 0.565066 (Simulation time: 0 hr 55 min 46 sec) 
Heartbeat CPU 0 instructions: 35000001 cycles: 50295964 heartbeat IPC: 0.489098 cumulative IPC: 0.561577 (Simulation time: 0 hr 57 min 31 sec) 
Heartbeat CPU 0 instructions: 36000000 cycles: 51772581 heartbeat IPC: 0.677223 cumulative IPC: 0.565289 (Simulation time: 0 hr 59 min 4 sec) 
Heartbeat CPU 0 instructions: 37000001 cycles: 53343940 heartbeat IPC: 0.636392 cumulative IPC: 0.567638 (Simulation time: 1 hr 0 min 34 sec) 
Heartbeat CPU 0 instructions: 38000001 cycles: 54911496 heartbeat IPC: 0.637936 cumulative IPC: 0.569881 (Simulation time: 1 hr 2 min 7 sec) 
Heartbeat CPU 0 instructions: 39000002 cycles: 56575184 heartbeat IPC: 0.601075 cumulative IPC: 0.570903 (Simulation time: 1 hr 3 min 42 sec) 
Heartbeat CPU 0 instructions: 40000000 cycles: 58188690 heartbeat IPC: 0.619767 cumulative IPC: 0.572407 (Simulation time: 1 hr 5 min 15 sec) 
Heartbeat CPU 0 instructions: 41000000 cycles: 59804066 heartbeat IPC: 0.619051 cumulative IPC: 0.573802 (Simulation time: 1 hr 6 min 53 sec) 
Heartbeat CPU 0 instructions: 42000001 cycles: 61418767 heartbeat IPC: 0.61931 cumulative IPC: 0.575123 (Simulation time: 1 hr 8 min 32 sec) 
Heartbeat CPU 0 instructions: 43000000 cycles: 62986490 heartbeat IPC: 0.637867 cumulative IPC: 0.576842 (Simulation time: 1 hr 10 min 12 sec) 
Heartbeat CPU 0 instructions: 44000000 cycles: 64320634 heartbeat IPC: 0.749544 cumulative IPC: 0.580778 (Simulation time: 1 hr 11 min 40 sec) 
Heartbeat CPU 0 instructions: 45000000 cycles: 65534198 heartbeat IPC: 0.824019 cumulative IPC: 0.585718 (Simulation time: 1 hr 13 min 9 sec) 
Heartbeat CPU 0 instructions: 46000002 cycles: 66776781 heartbeat IPC: 0.804777 cumulative IPC: 0.59018 (Simulation time: 1 hr 14 min 36 sec) 
Heartbeat CPU 0 instructions: 47000001 cycles: 68189152 heartbeat IPC: 0.708029 cumulative IPC: 0.592847 (Simulation time: 1 hr 16 min 14 sec) 
Heartbeat CPU 0 instructions: 48000000 cycles: 69593772 heartbeat IPC: 0.711936 cumulative IPC: 0.595468 (Simulation time: 1 hr 17 min 45 sec) 
Heartbeat CPU 0 instructions: 49000001 cycles: 71082036 heartbeat IPC: 0.671924 cumulative IPC: 0.597211 (Simulation time: 1 hr 19 min 20 sec) 
Heartbeat CPU 0 instructions: 50000002 cycles: 72615581 heartbeat IPC: 0.652085 cumulative IPC: 0.59847 (Simulation time: 1 hr 20 min 56 sec) 
Heartbeat CPU 0 instructions: 51000001 cycles: 74073724 heartbeat IPC: 0.685803 cumulative IPC: 0.600334 (Simulation time: 1 hr 22 min 29 sec) 
Heartbeat CPU 0 instructions: 52000000 cycles: 75554387 heartbeat IPC: 0.675372 cumulative IPC: 0.601927 (Simulation time: 1 hr 24 min 12 sec) 
Heartbeat CPU 0 instructions: 53000002 cycles: 76870917 heartbeat IPC: 0.759574 cumulative IPC: 0.604846 (Simulation time: 1 hr 25 min 46 sec) 
Heartbeat CPU 0 instructions: 54000001 cycles: 78150215 heartbeat IPC: 0.781678 cumulative IPC: 0.607972 (Simulation time: 1 hr 27 min 26 sec) 
Heartbeat CPU 0 instructions: 55000001 cycles: 79647696 heartbeat IPC: 0.667788 cumulative IPC: 0.609185 (Simulation time: 1 hr 29 min 8 sec) 
Heartbeat CPU 0 instructions: 56000000 cycles: 81266251 heartbeat IPC: 0.617834 cumulative IPC: 0.60937 (Simulation time: 1 hr 30 min 52 sec) 
Heartbeat CPU 0 instructions: 57000001 cycles: 82949229 heartbeat IPC: 0.594185 cumulative IPC: 0.609039 (Simulation time: 1 hr 32 min 50 sec) 
Heartbeat CPU 0 instructions: 58000003 cycles: 84613078 heartbeat IPC: 0.601017 cumulative IPC: 0.608869 (Simulation time: 1 hr 34 min 51 sec) 
Heartbeat CPU 0 instructions: 59000001 cycles: 86526512 heartbeat IPC: 0.52262 cumulative IPC: 0.606826 (Simulation time: 1 hr 36 min 55 sec) 
Heartbeat CPU 0 instructions: 60000000 cycles: 88430828 heartbeat IPC: 0.525122 cumulative IPC: 0.604943 (Simulation time: 1 hr 38 min 55 sec) 
Heartbeat CPU 0 instructions: 61000000 cycles: 91706453 heartbeat IPC: 0.305285 cumulative IPC: 0.59352 (Simulation time: 1 hr 41 min 8 sec) 
Heartbeat CPU 0 instructions: 62000000 cycles: 94083608 heartbeat IPC: 0.420671 cumulative IPC: 0.588867 (Simulation time: 1 hr 43 min 14 sec) 
Heartbeat CPU 0 instructions: 63000001 cycles: 96166932 heartbeat IPC: 0.480003 cumulative IPC: 0.586358 (Simulation time: 1 hr 45 min 10 sec) 
Heartbeat CPU 0 instructions: 64000000 cycles: 98405315 heartbeat IPC: 0.446751 cumulative IPC: 0.582984 (Simulation time: 1 hr 47 min 11 sec) 
Heartbeat CPU 0 instructions: 65000003 cycles: 100048885 heartbeat IPC: 0.608433 cumulative IPC: 0.583428 (Simulation time: 1 hr 49 min 1 sec) 
Heartbeat CPU 0 instructions: 66000000 cycles: 101681214 heartbeat IPC: 0.61262 cumulative IPC: 0.583925 (Simulation time: 1 hr 50 min 48 sec) 
Heartbeat CPU 0 instructions: 67000000 cycles: 103301500 heartbeat IPC: 0.617175 cumulative IPC: 0.584477 (Simulation time: 1 hr 52 min 35 sec) 
Heartbeat CPU 0 instructions: 68000000 cycles: 104939779 heartbeat IPC: 0.610397 cumulative IPC: 0.584905 (Simulation time: 1 hr 54 min 23 sec) 
Heartbeat CPU 0 instructions: 69000000 cycles: 106592168 heartbeat IPC: 0.605184 cumulative IPC: 0.585238 (Simulation time: 1 hr 56 min 15 sec) 
Heartbeat CPU 0 instructions: 70000001 cycles: 108232882 heartbeat IPC: 0.609491 cumulative IPC: 0.585626 (Simulation time: 1 hr 57 min 59 sec) 
Heartbeat CPU 0 instructions: 71000001 cycles: 109857796 heartbeat IPC: 0.615417 cumulative IPC: 0.586091 (Simulation time: 1 hr 59 min 49 sec) 
Heartbeat CPU 0 instructions: 72000000 cycles: 111493753 heartbeat IPC: 0.611262 cumulative IPC: 0.586481 (Simulation time: 2 hr 1 min 37 sec) 
Heartbeat CPU 0 instructions: 73000003 cycles: 113118137 heartbeat IPC: 0.61562 cumulative IPC: 0.586922 (Simulation time: 2 hr 3 min 30 sec) 
Heartbeat CPU 0 instructions: 74000000 cycles: 114748158 heartbeat IPC: 0.613487 cumulative IPC: 0.587319 (Simulation time: 2 hr 5 min 20 sec) 
Heartbeat CPU 0 instructions: 75000001 cycles: 116377924 heartbeat IPC: 0.613586 cumulative IPC: 0.587706 (Simulation time: 2 hr 7 min 13 sec) 
Heartbeat CPU 0 instructions: 76000000 cycles: 118034507 heartbeat IPC: 0.603652 cumulative IPC: 0.587942 (Simulation time: 2 hr 9 min 1 sec) 
Heartbeat CPU 0 instructions: 77000003 cycles: 119673508 heartbeat IPC: 0.61013 cumulative IPC: 0.588261 (Simulation time: 2 hr 10 min 58 sec) 
Heartbeat CPU 0 instructions: 78000001 cycles: 121293566 heartbeat IPC: 0.617261 cumulative IPC: 0.588668 (Simulation time: 2 hr 12 min 52 sec) 
Heartbeat CPU 0 instructions: 79000000 cycles: 122931325 heartbeat IPC: 0.61059 cumulative IPC: 0.588974 (Simulation time: 2 hr 14 min 44 sec) 
Heartbeat CPU 0 instructions: 80000000 cycles: 124562648 heartbeat IPC: 0.612999 cumulative IPC: 0.589304 (Simulation time: 2 hr 16 min 38 sec) 
Heartbeat CPU 0 instructions: 81000001 cycles: 126178185 heartbeat IPC: 0.61899 cumulative IPC: 0.589702 (Simulation time: 2 hr 18 min 25 sec) 
Heartbeat CPU 0 instructions: 82000000 cycles: 127804117 heartbeat IPC: 0.615031 cumulative IPC: 0.59004 (Simulation time: 2 hr 20 min 15 sec) 
Heartbeat CPU 0 instructions: 83000000 cycles: 129440827 heartbeat IPC: 0.610982 cumulative IPC: 0.590317 (Simulation time: 2 hr 22 min 15 sec) 
Heartbeat CPU 0 instructions: 84000000 cycles: 131095224 heartbeat IPC: 0.60445 cumulative IPC: 0.590504 (Simulation time: 2 hr 24 min 11 sec) 
Heartbeat CPU 0 instructions: 85000000 cycles: 132738547 heartbeat IPC: 0.608523 cumulative IPC: 0.590737 (Simulation time: 2 hr 25 min 58 sec) 
Heartbeat CPU 0 instructions: 86000000 cycles: 134377812 heartbeat IPC: 0.61003 cumulative IPC: 0.590983 (Simulation time: 2 hr 27 min 45 sec) 
Heartbeat CPU 0 instructions: 87000000 cycles: 136008023 heartbeat IPC: 0.613418 cumulative IPC: 0.591264 (Simulation time: 2 hr 29 min 20 sec) 
Heartbeat CPU 0 instructions: 88000000 cycles: 137645720 heartbeat IPC: 0.610614 cumulative IPC: 0.591504 (Simulation time: 2 hr 30 min 51 sec) 
Heartbeat CPU 0 instructions: 89000002 cycles: 139286755 heartbeat IPC: 0.609373 cumulative IPC: 0.591724 (Simulation time: 2 hr 32 min 19 sec) 
Heartbeat CPU 0 instructions: 90000000 cycles: 140897496 heartbeat IPC: 0.620831 cumulative IPC: 0.59207 (Simulation time: 2 hr 33 min 45 sec) 
Heartbeat CPU 0 instructions: 91000000 cycles: 142534574 heartbeat IPC: 0.610844 cumulative IPC: 0.592295 (Simulation time: 2 hr 35 min 15 sec) 
Heartbeat CPU 0 instructions: 92000000 cycles: 144162017 heartbeat IPC: 0.614461 cumulative IPC: 0.592556 (Simulation time: 2 hr 36 min 45 sec) 
Heartbeat CPU 0 instructions: 93000000 cycles: 145792393 heartbeat IPC: 0.613355 cumulative IPC: 0.592798 (Simulation time: 2 hr 38 min 18 sec) 
Heartbeat CPU 0 instructions: 94000003 cycles: 147402233 heartbeat IPC: 0.621182 cumulative IPC: 0.593121 (Simulation time: 2 hr 39 min 41 sec) 
Heartbeat CPU 0 instructions: 95000000 cycles: 149035080 heartbeat IPC: 0.612425 cumulative IPC: 0.593341 (Simulation time: 2 hr 40 min 54 sec) 
Heartbeat CPU 0 instructions: 96000000 cycles: 150654165 heartbeat IPC: 0.617633 cumulative IPC: 0.593612 (Simulation time: 2 hr 41 min 57 sec) 
Heartbeat CPU 0 instructions: 97000001 cycles: 152306302 heartbeat IPC: 0.605277 cumulative IPC: 0.593744 (Simulation time: 2 hr 43 min 5 sec) 
Heartbeat CPU 0 instructions: 98000003 cycles: 153955314 heartbeat IPC: 0.606425 cumulative IPC: 0.593885 (Simulation time: 2 hr 44 min 11 sec) 
Heartbeat CPU 0 instructions: 99000000 cycles: 155590965 heartbeat IPC: 0.611376 cumulative IPC: 0.594076 (Simulation time: 2 hr 45 min 17 sec) 
Heartbeat CPU 0 instructions: 100000000 cycles: 157202620 heartbeat IPC: 0.62048 cumulative IPC: 0.594357 (Simulation time: 2 hr 46 min 21 sec) 
Heartbeat CPU 0 instructions: 101000000 cycles: 158817375 heartbeat IPC: 0.619289 cumulative IPC: 0.59462 (Simulation time: 2 hr 47 min 26 sec) 
Heartbeat CPU 0 instructions: 102000003 cycles: 160447961 heartbeat IPC: 0.613278 cumulative IPC: 0.594817 (Simulation time: 2 hr 48 min 26 sec) 
Heartbeat CPU 0 instructions: 103000000 cycles: 162073149 heartbeat IPC: 0.615312 cumulative IPC: 0.59503 (Simulation time: 2 hr 49 min 28 sec) 
Heartbeat CPU 0 instructions: 104000000 cycles: 163708420 heartbeat IPC: 0.611519 cumulative IPC: 0.5952 (Simulation time: 2 hr 50 min 20 sec) 
Heartbeat CPU 0 instructions: 105000000 cycles: 165348855 heartbeat IPC: 0.609594 cumulative IPC: 0.595348 (Simulation time: 2 hr 51 min 12 sec) 
Heartbeat CPU 0 instructions: 106000000 cycles: 166974447 heartbeat IPC: 0.615161 cumulative IPC: 0.595548 (Simulation time: 2 hr 52 min 7 sec) 
Heartbeat CPU 0 instructions: 107000000 cycles: 168604757 heartbeat IPC: 0.61338 cumulative IPC: 0.595727 (Simulation time: 2 hr 52 min 53 sec) 
Heartbeat CPU 0 instructions: 108000000 cycles: 170231122 heartbeat IPC: 0.614868 cumulative IPC: 0.595916 (Simulation time: 2 hr 53 min 35 sec) 
Heartbeat CPU 0 instructions: 109000003 cycles: 171861922 heartbeat IPC: 0.613198 cumulative IPC: 0.596086 (Simulation time: 2 hr 54 min 17 sec) 
Heartbeat CPU 0 instructions: 110000001 cycles: 173477091 heartbeat IPC: 0.619129 cumulative IPC: 0.596308 (Simulation time: 2 hr 54 min 58 sec) 
Finished CPU 0 instructions: 100000000 cycles: 167698643 cummulative IPC: 0.596308 (Simulation time: 2 hr 54 min 58 sec) 

ChampSim completed all CPUs

Region of Interest Statistics

CPU 0 cummulative IPC: 0.596308 instructions: 100000000 cycles: 167698643
LLC TOTAL     ACCESS:    1490752  HIT:     239357  MISS:    1251395
LLC LOAD      ACCESS:     835381  HIT:     118328  MISS:     717053
LLC RFO       ACCESS:     219225  HIT:      23723  MISS:     195502
LLC PREFETCH  ACCESS:          0  HIT:          0  MISS:          0
LLC WRITEBACK ACCESS:     436146  HIT:      97306  MISS:     338840
