
*** ChampSim Multicore Out-of-Order Simulator ***

Warmup Instructions: 10000000
Simulation Instructions: 100000000
Configuration: 1
Number of CPUs: 1
LLC sets: 2048
LLC ways: 16
Off-chip DRAM Channels: 1 Width: 64-bit Data Rate: 1600 MT/s

CPU 0 runs /datasets/cs240c-wi22-a00-public/data/Assignment2-gz/libquantum_964B.trace.gz
config 1, num_core 1, llc_sets 2048
Heartbeat CPU 0 instructions: 1000001 cycles: 333344 heartbeat IPC: 2.99991 cumulative IPC: 2.99991 (Simulation time: 0 hr 0 min 55 sec) 
Heartbeat CPU 0 instructions: 2000001 cycles: 666677 heartbeat IPC: 3 cumulative IPC: 2.99995 (Simulation time: 0 hr 1 min 51 sec) 
Heartbeat CPU 0 instructions: 3000000 cycles: 1000009 heartbeat IPC: 3.00001 cumulative IPC: 2.99997 (Simulation time: 0 hr 2 min 47 sec) 
Heartbeat CPU 0 instructions: 4000000 cycles: 1333342 heartbeat IPC: 3 cumulative IPC: 2.99998 (Simulation time: 0 hr 3 min 43 sec) 
Heartbeat CPU 0 instructions: 5000001 cycles: 1666677 heartbeat IPC: 2.99999 cumulative IPC: 2.99998 (Simulation time: 0 hr 4 min 39 sec) 
Heartbeat CPU 0 instructions: 6000001 cycles: 2000010 heartbeat IPC: 3 cumulative IPC: 2.99999 (Simulation time: 0 hr 5 min 39 sec) 
Heartbeat CPU 0 instructions: 7000003 cycles: 2331521 heartbeat IPC: 3.0165 cumulative IPC: 3.00233 (Simulation time: 0 hr 6 min 40 sec) 
Heartbeat CPU 0 instructions: 8000000 cycles: 2662242 heartbeat IPC: 3.02369 cumulative IPC: 3.00499 (Simulation time: 0 hr 7 min 40 sec) 
Heartbeat CPU 0 instructions: 9000001 cycles: 2992965 heartbeat IPC: 3.02368 cumulative IPC: 3.00705 (Simulation time: 0 hr 8 min 34 sec) 
Heartbeat CPU 0 instructions: 10000003 cycles: 3323686 heartbeat IPC: 3.0237 cumulative IPC: 3.00871 (Simulation time: 0 hr 9 min 31 sec) 

Warmup complete CPU 0 instructions: 10000003 cycles: 3323686 (Simulation time: 0 hr 9 min 31 sec) 

Heartbeat CPU 0 instructions: 11000000 cycles: 5630872 heartbeat IPC: 0.433427 cumulative IPC: 0.433427 (Simulation time: 0 hr 10 min 58 sec) 
Heartbeat CPU 0 instructions: 12000000 cycles: 7925407 heartbeat IPC: 0.435818 cumulative IPC: 0.434619 (Simulation time: 0 hr 12 min 22 sec) 
Heartbeat CPU 0 instructions: 13000001 cycles: 10225886 heartbeat IPC: 0.434693 cumulative IPC: 0.434644 (Simulation time: 0 hr 13 min 43 sec) 
Heartbeat CPU 0 instructions: 14000000 cycles: 12526610 heartbeat IPC: 0.434645 cumulative IPC: 0.434644 (Simulation time: 0 hr 15 min 7 sec) 
Heartbeat CPU 0 instructions: 15000003 cycles: 14827278 heartbeat IPC: 0.434658 cumulative IPC: 0.434647 (Simulation time: 0 hr 16 min 27 sec) 
Heartbeat CPU 0 instructions: 16000000 cycles: 17133074 heartbeat IPC: 0.433688 cumulative IPC: 0.434487 (Simulation time: 0 hr 17 min 50 sec) 
Heartbeat CPU 0 instructions: 17000000 cycles: 19429738 heartbeat IPC: 0.435414 cumulative IPC: 0.434619 (Simulation time: 0 hr 19 min 14 sec) 
Heartbeat CPU 0 instructions: 18000003 cycles: 21724720 heartbeat IPC: 0.435735 cumulative IPC: 0.434758 (Simulation time: 0 hr 20 min 41 sec) 
Heartbeat CPU 0 instructions: 19000002 cycles: 24012987 heartbeat IPC: 0.437012 cumulative IPC: 0.435007 (Simulation time: 0 hr 22 min 10 sec) 
Heartbeat CPU 0 instructions: 20000000 cycles: 26310697 heartbeat IPC: 0.435215 cumulative IPC: 0.435028 (Simulation time: 0 hr 23 min 36 sec) 
Heartbeat CPU 0 instructions: 21000003 cycles: 28599558 heartbeat IPC: 0.4369 cumulative IPC: 0.435198 (Simulation time: 0 hr 24 min 59 sec) 
Heartbeat CPU 0 instructions: 22000002 cycles: 30897914 heartbeat IPC: 0.435093 cumulative IPC: 0.435189 (Simulation time: 0 hr 26 min 25 sec) 
Heartbeat CPU 0 instructions: 23000000 cycles: 33201683 heartbeat IPC: 0.43407 cumulative IPC: 0.435103 (Simulation time: 0 hr 27 min 53 sec) 
Heartbeat CPU 0 instructions: 24000000 cycles: 35504031 heartbeat IPC: 0.434339 cumulative IPC: 0.435048 (Simulation time: 0 hr 29 min 17 sec) 
Heartbeat CPU 0 instructions: 25000000 cycles: 37810156 heartbeat IPC: 0.433628 cumulative IPC: 0.434953 (Simulation time: 0 hr 30 min 42 sec) 
Heartbeat CPU 0 instructions: 26000002 cycles: 40186364 heartbeat IPC: 0.420839 cumulative IPC: 0.434043 (Simulation time: 0 hr 32 min 21 sec) 
Heartbeat CPU 0 instructions: 27000002 cycles: 42606040 heartbeat IPC: 0.413278 cumulative IPC: 0.432764 (Simulation time: 0 hr 34 min 7 sec) 
Heartbeat CPU 0 instructions: 28000000 cycles: 45046697 heartbeat IPC: 0.409725 cumulative IPC: 0.431417 (Simulation time: 0 hr 35 min 51 sec) 
Heartbeat CPU 0 instructions: 29000002 cycles: 47488438 heartbeat IPC: 0.409545 cumulative IPC: 0.430207 (Simulation time: 0 hr 37 min 35 sec) 
Heartbeat CPU 0 instructions: 30000002 cycles: 49908596 heartbeat IPC: 0.413196 cumulative IPC: 0.429324 (Simulation time: 0 hr 39 min 16 sec) 
Heartbeat CPU 0 instructions: 31000002 cycles: 52364625 heartbeat IPC: 0.407161 cumulative IPC: 0.428214 (Simulation time: 0 hr 41 min 4 sec) 
Heartbeat CPU 0 instructions: 32000000 cycles: 54803941 heartbeat IPC: 0.40995 cumulative IPC: 0.427348 (Simulation time: 0 hr 42 min 47 sec) 
Heartbeat CPU 0 instructions: 33000002 cycles: 56582328 heartbeat IPC: 0.562308 cumulative IPC: 0.431855 (Simulation time: 0 hr 44 min 20 sec) 
Heartbeat CPU 0 instructions: 34000002 cycles: 59021419 heartbeat IPC: 0.409989 cumulative IPC: 0.430897 (Simulation time: 0 hr 46 min 9 sec) 
Heartbeat CPU 0 instructions: 35000002 cycles: 61461147 heartbeat IPC: 0.409882 cumulative IPC: 0.430015 (Simulation time: 0 hr 47 min 52 sec) 
Heartbeat CPU 0 instructions: 36000000 cycles: 63881274 heartbeat IPC: 0.413201 cumulative IPC: 0.429343 (Simulation time: 0 hr 49 min 42 sec) 
Heartbeat CPU 0 instructions: 37000001 cycles: 65970229 heartbeat IPC: 0.478709 cumulative IPC: 0.430989 (Simulation time: 0 hr 51 min 15 sec) 
Heartbeat CPU 0 instructions: 38000000 cycles: 67970228 heartbeat IPC: 0.5 cumulative IPC: 0.433124 (Simulation time: 0 hr 52 min 40 sec) 
Heartbeat CPU 0 instructions: 39000003 cycles: 69970136 heartbeat IPC: 0.500024 cumulative IPC: 0.435132 (Simulation time: 0 hr 54 min 8 sec) 
Heartbeat CPU 0 instructions: 40000000 cycles: 71970130 heartbeat IPC: 0.5 cumulative IPC: 0.437022 (Simulation time: 0 hr 55 min 34 sec) 
Heartbeat CPU 0 instructions: 41000001 cycles: 73970168 heartbeat IPC: 0.499991 cumulative IPC: 0.438805 (Simulation time: 0 hr 57 min 5 sec) 
Heartbeat CPU 0 instructions: 42000000 cycles: 75970165 heartbeat IPC: 0.5 cumulative IPC: 0.440489 (Simulation time: 0 hr 58 min 39 sec) 
Heartbeat CPU 0 instructions: 43000001 cycles: 77970072 heartbeat IPC: 0.500024 cumulative IPC: 0.442084 (Simulation time: 1 hr 0 min 7 sec) 
Heartbeat CPU 0 instructions: 44000000 cycles: 79970067 heartbeat IPC: 0.500001 cumulative IPC: 0.443596 (Simulation time: 1 hr 1 min 39 sec) 
Heartbeat CPU 0 instructions: 45000002 cycles: 81970101 heartbeat IPC: 0.499992 cumulative IPC: 0.44503 (Simulation time: 1 hr 3 min 8 sec) 
Heartbeat CPU 0 instructions: 46000001 cycles: 83970011 heartbeat IPC: 0.500022 cumulative IPC: 0.446394 (Simulation time: 1 hr 4 min 33 sec) 
Heartbeat CPU 0 instructions: 47000000 cycles: 85970003 heartbeat IPC: 0.500001 cumulative IPC: 0.447691 (Simulation time: 1 hr 5 min 59 sec) 
Heartbeat CPU 0 instructions: 48000000 cycles: 87970004 heartbeat IPC: 0.5 cumulative IPC: 0.448927 (Simulation time: 1 hr 7 min 31 sec) 
Heartbeat CPU 0 instructions: 49000002 cycles: 89506686 heartbeat IPC: 0.650754 cumulative IPC: 0.452525 (Simulation time: 1 hr 8 min 55 sec) 
Heartbeat CPU 0 instructions: 50000001 cycles: 91324410 heartbeat IPC: 0.550138 cumulative IPC: 0.454542 (Simulation time: 1 hr 10 min 22 sec) 
Heartbeat CPU 0 instructions: 51000000 cycles: 93324513 heartbeat IPC: 0.499974 cumulative IPC: 0.455551 (Simulation time: 1 hr 11 min 52 sec) 
Heartbeat CPU 0 instructions: 52000000 cycles: 95324620 heartbeat IPC: 0.499973 cumulative IPC: 0.456517 (Simulation time: 1 hr 13 min 22 sec) 
Heartbeat CPU 0 instructions: 53000000 cycles: 97324769 heartbeat IPC: 0.499963 cumulative IPC: 0.457442 (Simulation time: 1 hr 14 min 53 sec) 
Heartbeat CPU 0 instructions: 54000002 cycles: 99324684 heartbeat IPC: 0.500022 cumulative IPC: 0.458329 (Simulation time: 1 hr 16 min 26 sec) 
Heartbeat CPU 0 instructions: 55000002 cycles: 101279136 heartbeat IPC: 0.511652 cumulative IPC: 0.459392 (Simulation time: 1 hr 17 min 56 sec) 
Heartbeat CPU 0 instructions: 56000000 cycles: 103362130 heartbeat IPC: 0.480077 cumulative IPC: 0.459823 (Simulation time: 1 hr 19 min 25 sec) 
Heartbeat CPU 0 instructions: 57000001 cycles: 105657389 heartbeat IPC: 0.435681 cumulative IPC: 0.459282 (Simulation time: 1 hr 20 min 56 sec) 
Heartbeat CPU 0 instructions: 58000000 cycles: 107952368 heartbeat IPC: 0.435733 cumulative IPC: 0.458765 (Simulation time: 1 hr 22 min 29 sec) 
Heartbeat CPU 0 instructions: 59000003 cycles: 110261899 heartbeat IPC: 0.43299 cumulative IPC: 0.458209 (Simulation time: 1 hr 23 min 58 sec) 
Heartbeat CPU 0 instructions: 60000000 cycles: 112553777 heartbeat IPC: 0.436322 cumulative IPC: 0.457749 (Simulation time: 1 hr 25 min 26 sec) 
Heartbeat CPU 0 instructions: 61000002 cycles: 114856925 heartbeat IPC: 0.434189 cumulative IPC: 0.457263 (Simulation time: 1 hr 26 min 55 sec) 
Heartbeat CPU 0 instructions: 62000001 cycles: 117154996 heartbeat IPC: 0.435147 cumulative IPC: 0.456816 (Simulation time: 1 hr 28 min 23 sec) 
Heartbeat CPU 0 instructions: 63000001 cycles: 119448582 heartbeat IPC: 0.435998 cumulative IPC: 0.456405 (Simulation time: 1 hr 29 min 44 sec) 
Heartbeat CPU 0 instructions: 64000000 cycles: 121752117 heartbeat IPC: 0.434115 cumulative IPC: 0.455972 (Simulation time: 1 hr 31 min 14 sec) 
Heartbeat CPU 0 instructions: 65000002 cycles: 124042141 heartbeat IPC: 0.436678 cumulative IPC: 0.455606 (Simulation time: 1 hr 32 min 47 sec) 
Heartbeat CPU 0 instructions: 66000002 cycles: 126340064 heartbeat IPC: 0.435176 cumulative IPC: 0.455224 (Simulation time: 1 hr 34 min 12 sec) 
Heartbeat CPU 0 instructions: 67000000 cycles: 128635144 heartbeat IPC: 0.435714 cumulative IPC: 0.454867 (Simulation time: 1 hr 35 min 39 sec) 
Heartbeat CPU 0 instructions: 68000000 cycles: 130700197 heartbeat IPC: 0.484249 cumulative IPC: 0.455343 (Simulation time: 1 hr 36 min 59 sec) 
Heartbeat CPU 0 instructions: 69000000 cycles: 132844921 heartbeat IPC: 0.46626 cumulative IPC: 0.455524 (Simulation time: 1 hr 38 min 19 sec) 
Heartbeat CPU 0 instructions: 70000002 cycles: 135141553 heartbeat IPC: 0.435421 cumulative IPC: 0.455173 (Simulation time: 1 hr 39 min 45 sec) 
Heartbeat CPU 0 instructions: 71000001 cycles: 137448228 heartbeat IPC: 0.433524 cumulative IPC: 0.454801 (Simulation time: 1 hr 41 min 11 sec) 
Heartbeat CPU 0 instructions: 72000000 cycles: 139746808 heartbeat IPC: 0.435051 cumulative IPC: 0.454468 (Simulation time: 1 hr 42 min 34 sec) 
Heartbeat CPU 0 instructions: 73000000 cycles: 142052898 heartbeat IPC: 0.433634 cumulative IPC: 0.454122 (Simulation time: 1 hr 44 min 2 sec) 
Heartbeat CPU 0 instructions: 74000000 cycles: 144005178 heartbeat IPC: 0.512222 cumulative IPC: 0.454928 (Simulation time: 1 hr 45 min 27 sec) 
Heartbeat CPU 0 instructions: 75000000 cycles: 146271365 heartbeat IPC: 0.44127 cumulative IPC: 0.454712 (Simulation time: 1 hr 47 min 14 sec) 
Heartbeat CPU 0 instructions: 76000000 cycles: 148827240 heartbeat IPC: 0.391255 cumulative IPC: 0.453597 (Simulation time: 1 hr 49 min 8 sec) 
Heartbeat CPU 0 instructions: 77000000 cycles: 151402064 heartbeat IPC: 0.388376 cumulative IPC: 0.452463 (Simulation time: 1 hr 51 min 0 sec) 
Heartbeat CPU 0 instructions: 78000000 cycles: 153945247 heartbeat IPC: 0.393208 cumulative IPC: 0.451463 (Simulation time: 1 hr 52 min 48 sec) 
Heartbeat CPU 0 instructions: 79000000 cycles: 156526060 heartbeat IPC: 0.387475 cumulative IPC: 0.450385 (Simulation time: 1 hr 54 min 33 sec) 
Heartbeat CPU 0 instructions: 80000000 cycles: 159110956 heartbeat IPC: 0.386863 cumulative IPC: 0.449331 (Simulation time: 1 hr 56 min 22 sec) 
Heartbeat CPU 0 instructions: 81000000 cycles: 161516478 heartbeat IPC: 0.41571 cumulative IPC: 0.448819 (Simulation time: 1 hr 58 min 8 sec) 
Heartbeat CPU 0 instructions: 82000000 cycles: 163878676 heartbeat IPC: 0.423335 cumulative IPC: 0.448444 (Simulation time: 1 hr 59 min 56 sec) 
Heartbeat CPU 0 instructions: 83000000 cycles: 166447716 heartbeat IPC: 0.38925 cumulative IPC: 0.447512 (Simulation time: 2 hr 1 min 45 sec) 
Heartbeat CPU 0 instructions: 84000000 cycles: 169024982 heartbeat IPC: 0.388008 cumulative IPC: 0.446587 (Simulation time: 2 hr 3 min 30 sec) 
Heartbeat CPU 0 instructions: 85000001 cycles: 170415356 heartbeat IPC: 0.719232 cumulative IPC: 0.448855 (Simulation time: 2 hr 5 min 4 sec) 
Heartbeat CPU 0 instructions: 86000000 cycles: 172311671 heartbeat IPC: 0.527338 cumulative IPC: 0.449736 (Simulation time: 2 hr 6 min 33 sec) 
Heartbeat CPU 0 instructions: 87000003 cycles: 174217488 heartbeat IPC: 0.524711 cumulative IPC: 0.450572 (Simulation time: 2 hr 8 min 7 sec) 
Heartbeat CPU 0 instructions: 88000000 cycles: 176123306 heartbeat IPC: 0.524707 cumulative IPC: 0.45139 (Simulation time: 2 hr 9 min 40 sec) 
Heartbeat CPU 0 instructions: 89000001 cycles: 178029174 heartbeat IPC: 0.524696 cumulative IPC: 0.45219 (Simulation time: 2 hr 11 min 7 sec) 
Heartbeat CPU 0 instructions: 90000000 cycles: 179935100 heartbeat IPC: 0.524679 cumulative IPC: 0.452972 (Simulation time: 2 hr 12 min 39 sec) 
Heartbeat CPU 0 instructions: 91000001 cycles: 181840831 heartbeat IPC: 0.524734 cumulative IPC: 0.453738 (Simulation time: 2 hr 14 min 9 sec) 
Heartbeat CPU 0 instructions: 92000000 cycles: 183746760 heartbeat IPC: 0.524678 cumulative IPC: 0.454487 (Simulation time: 2 hr 15 min 39 sec) 
Heartbeat CPU 0 instructions: 93000002 cycles: 185652732 heartbeat IPC: 0.524668 cumulative IPC: 0.455221 (Simulation time: 2 hr 17 min 14 sec) 
Heartbeat CPU 0 instructions: 94000001 cycles: 187558553 heartbeat IPC: 0.524708 cumulative IPC: 0.45594 (Simulation time: 2 hr 18 min 42 sec) 
Heartbeat CPU 0 instructions: 95000000 cycles: 189464279 heartbeat IPC: 0.524734 cumulative IPC: 0.456644 (Simulation time: 2 hr 20 min 11 sec) 
Heartbeat CPU 0 instructions: 96000000 cycles: 191370099 heartbeat IPC: 0.524709 cumulative IPC: 0.457334 (Simulation time: 2 hr 21 min 46 sec) 
Heartbeat CPU 0 instructions: 97000002 cycles: 193247262 heartbeat IPC: 0.53272 cumulative IPC: 0.458079 (Simulation time: 2 hr 23 min 11 sec) 
Heartbeat CPU 0 instructions: 98000001 cycles: 194859977 heartbeat IPC: 0.620072 cumulative IPC: 0.459443 (Simulation time: 2 hr 24 min 43 sec) 
Heartbeat CPU 0 instructions: 99000000 cycles: 196765703 heartbeat IPC: 0.524734 cumulative IPC: 0.460086 (Simulation time: 2 hr 26 min 13 sec) 
Heartbeat CPU 0 instructions: 100000000 cycles: 198671522 heartbeat IPC: 0.524709 cumulative IPC: 0.460717 (Simulation time: 2 hr 27 min 35 sec) 
Heartbeat CPU 0 instructions: 101000000 cycles: 200577385 heartbeat IPC: 0.524697 cumulative IPC: 0.461335 (Simulation time: 2 hr 28 min 49 sec) 
Heartbeat CPU 0 instructions: 102000002 cycles: 202483207 heartbeat IPC: 0.524709 cumulative IPC: 0.461941 (Simulation time: 2 hr 30 min 1 sec) 
Heartbeat CPU 0 instructions: 103000001 cycles: 204376165 heartbeat IPC: 0.528273 cumulative IPC: 0.462566 (Simulation time: 2 hr 31 min 15 sec) 
Heartbeat CPU 0 instructions: 104000000 cycles: 206179360 heartbeat IPC: 0.554571 cumulative IPC: 0.463384 (Simulation time: 2 hr 32 min 43 sec) 
Heartbeat CPU 0 instructions: 105000000 cycles: 208643570 heartbeat IPC: 0.40581 cumulative IPC: 0.462693 (Simulation time: 2 hr 34 min 19 sec) 
Heartbeat CPU 0 instructions: 106000000 cycles: 211137209 heartbeat IPC: 0.40102 cumulative IPC: 0.461953 (Simulation time: 2 hr 35 min 40 sec) 
Heartbeat CPU 0 instructions: 107000000 cycles: 213631589 heartbeat IPC: 0.400901 cumulative IPC: 0.461228 (Simulation time: 2 hr 36 min 51 sec) 
Heartbeat CPU 0 instructions: 108000000 cycles: 216137074 heartbeat IPC: 0.399124 cumulative IPC: 0.460497 (Simulation time: 2 hr 37 min 58 sec) 
Heartbeat CPU 0 instructions: 109000000 cycles: 218657168 heartbeat IPC: 0.396811 cumulative IPC: 0.459752 (Simulation time: 2 hr 39 min 7 sec) 
Heartbeat CPU 0 instructions: 110000000 cycles: 221152702 heartbeat IPC: 0.400716 cumulative IPC: 0.459076 (Simulation time: 2 hr 40 min 15 sec) 
Finished CPU 0 instructions: 100000001 cycles: 217829017 cummulative IPC: 0.459076 (Simulation time: 2 hr 40 min 15 sec) 

ChampSim completed all CPUs

Region of Interest Statistics

CPU 0 cummulative IPC: 0.459076 instructions: 100000001 cycles: 217829017
LLC TOTAL     ACCESS:    4917103  HIT:     223184  MISS:    4693919
LLC LOAD      ACCESS:    3390381  HIT:     139409  MISS:    3250972
LLC RFO       ACCESS:         24  HIT:          4  MISS:         20
LLC PREFETCH  ACCESS:          0  HIT:          0  MISS:          0
LLC WRITEBACK ACCESS:    1526698  HIT:      83771  MISS:    1442927
