
*** ChampSim Multicore Out-of-Order Simulator ***

Warmup Instructions: 10000000
Simulation Instructions: 100000000
Configuration: 1
Number of CPUs: 1
LLC sets: 2048
LLC ways: 16
Off-chip DRAM Channels: 1 Width: 64-bit Data Rate: 1600 MT/s

CPU 0 runs /datasets/cs240c-wi22-a00-public/data/Assignment2-gz/sphinx3_1339B.trace.gz
config 1, num_core 1, llc_sets 2048
Heartbeat CPU 0 instructions: 1000001 cycles: 338437 heartbeat IPC: 2.95476 cumulative IPC: 2.95476 (Simulation time: 0 hr 1 min 17 sec) 
Heartbeat CPU 0 instructions: 2000001 cycles: 691951 heartbeat IPC: 2.82874 cumulative IPC: 2.89038 (Simulation time: 0 hr 2 min 29 sec) 
Heartbeat CPU 0 instructions: 3000000 cycles: 1082097 heartbeat IPC: 2.56314 cumulative IPC: 2.77239 (Simulation time: 0 hr 3 min 47 sec) 
Heartbeat CPU 0 instructions: 4000000 cycles: 1526746 heartbeat IPC: 2.24897 cumulative IPC: 2.61995 (Simulation time: 0 hr 4 min 57 sec) 
Heartbeat CPU 0 instructions: 5000003 cycles: 1865168 heartbeat IPC: 2.9549 cumulative IPC: 2.68073 (Simulation time: 0 hr 6 min 10 sec) 
Heartbeat CPU 0 instructions: 6000002 cycles: 2248377 heartbeat IPC: 2.60954 cumulative IPC: 2.66859 (Simulation time: 0 hr 7 min 25 sec) 
Heartbeat CPU 0 instructions: 7000002 cycles: 2711204 heartbeat IPC: 2.16063 cumulative IPC: 2.58188 (Simulation time: 0 hr 8 min 37 sec) 
Heartbeat CPU 0 instructions: 8000000 cycles: 3049747 heartbeat IPC: 2.95383 cumulative IPC: 2.62317 (Simulation time: 0 hr 9 min 48 sec) 
Heartbeat CPU 0 instructions: 9000003 cycles: 3405481 heartbeat IPC: 2.8111 cumulative IPC: 2.6428 (Simulation time: 0 hr 11 min 1 sec) 
Heartbeat CPU 0 instructions: 10000001 cycles: 3791217 heartbeat IPC: 2.59244 cumulative IPC: 2.63768 (Simulation time: 0 hr 12 min 16 sec) 

Warmup complete CPU 0 instructions: 10000001 cycles: 3791217 (Simulation time: 0 hr 12 min 16 sec) 

Heartbeat CPU 0 instructions: 11000000 cycles: 5061947 heartbeat IPC: 0.786948 cumulative IPC: 0.786948 (Simulation time: 0 hr 13 min 45 sec) 
Heartbeat CPU 0 instructions: 12000000 cycles: 5931255 heartbeat IPC: 1.15034 cumulative IPC: 0.934562 (Simulation time: 0 hr 15 min 6 sec) 
Heartbeat CPU 0 instructions: 13000000 cycles: 8087966 heartbeat IPC: 0.463669 cumulative IPC: 0.698202 (Simulation time: 0 hr 16 min 41 sec) 
Heartbeat CPU 0 instructions: 14000000 cycles: 9602469 heartbeat IPC: 0.660283 cumulative IPC: 0.68832 (Simulation time: 0 hr 18 min 9 sec) 
Heartbeat CPU 0 instructions: 15000002 cycles: 10568898 heartbeat IPC: 1.03474 cumulative IPC: 0.737716 (Simulation time: 0 hr 19 min 36 sec) 
Heartbeat CPU 0 instructions: 16000000 cycles: 11992862 heartbeat IPC: 0.702264 cumulative IPC: 0.73156 (Simulation time: 0 hr 21 min 7 sec) 
Heartbeat CPU 0 instructions: 17000001 cycles: 13814428 heartbeat IPC: 0.548979 cumulative IPC: 0.698379 (Simulation time: 0 hr 22 min 42 sec) 
Heartbeat CPU 0 instructions: 18000003 cycles: 15112036 heartbeat IPC: 0.77065 cumulative IPC: 0.706663 (Simulation time: 0 hr 24 min 9 sec) 
Heartbeat CPU 0 instructions: 19000000 cycles: 16350940 heartbeat IPC: 0.807163 cumulative IPC: 0.716576 (Simulation time: 0 hr 25 min 37 sec) 
Heartbeat CPU 0 instructions: 20000000 cycles: 17249554 heartbeat IPC: 1.11282 cumulative IPC: 0.743034 (Simulation time: 0 hr 27 min 1 sec) 
Heartbeat CPU 0 instructions: 21000000 cycles: 19060039 heartbeat IPC: 0.552338 cumulative IPC: 0.720422 (Simulation time: 0 hr 28 min 34 sec) 
Heartbeat CPU 0 instructions: 22000000 cycles: 20713795 heartbeat IPC: 0.604684 cumulative IPC: 0.709112 (Simulation time: 0 hr 30 min 4 sec) 
Heartbeat CPU 0 instructions: 23000002 cycles: 21734160 heartbeat IPC: 0.980043 cumulative IPC: 0.724519 (Simulation time: 0 hr 31 min 32 sec) 
Heartbeat CPU 0 instructions: 24000000 cycles: 22832575 heartbeat IPC: 0.910401 cumulative IPC: 0.735242 (Simulation time: 0 hr 32 min 57 sec) 
Heartbeat CPU 0 instructions: 25000001 cycles: 24530394 heartbeat IPC: 0.588992 cumulative IPC: 0.723269 (Simulation time: 0 hr 34 min 30 sec) 
Heartbeat CPU 0 instructions: 26000002 cycles: 25544462 heartbeat IPC: 0.986128 cumulative IPC: 0.735523 (Simulation time: 0 hr 35 min 55 sec) 
Heartbeat CPU 0 instructions: 27000003 cycles: 26432696 heartbeat IPC: 1.12583 cumulative IPC: 0.750834 (Simulation time: 0 hr 37 min 19 sec) 
Heartbeat CPU 0 instructions: 28000000 cycles: 28136976 heartbeat IPC: 0.586756 cumulative IPC: 0.739348 (Simulation time: 0 hr 38 min 46 sec) 
Heartbeat CPU 0 instructions: 29000003 cycles: 29168638 heartbeat IPC: 0.969313 cumulative IPC: 0.748697 (Simulation time: 0 hr 40 min 11 sec) 
Heartbeat CPU 0 instructions: 30000002 cycles: 30080290 heartbeat IPC: 1.09691 cumulative IPC: 0.760772 (Simulation time: 0 hr 41 min 34 sec) 
Heartbeat CPU 0 instructions: 31000003 cycles: 31588670 heartbeat IPC: 0.662964 cumulative IPC: 0.755465 (Simulation time: 0 hr 43 min 1 sec) 
Heartbeat CPU 0 instructions: 32000000 cycles: 32702932 heartbeat IPC: 0.897452 cumulative IPC: 0.760937 (Simulation time: 0 hr 44 min 29 sec) 
Heartbeat CPU 0 instructions: 33000001 cycles: 33641473 heartbeat IPC: 1.06548 cumulative IPC: 0.770513 (Simulation time: 0 hr 45 min 53 sec) 
Heartbeat CPU 0 instructions: 34000001 cycles: 35644624 heartbeat IPC: 0.499213 cumulative IPC: 0.753452 (Simulation time: 0 hr 47 min 22 sec) 
Heartbeat CPU 0 instructions: 35000003 cycles: 37046729 heartbeat IPC: 0.713215 cumulative IPC: 0.751755 (Simulation time: 0 hr 48 min 48 sec) 
Heartbeat CPU 0 instructions: 36000000 cycles: 38093887 heartbeat IPC: 0.954963 cumulative IPC: 0.757958 (Simulation time: 0 hr 50 min 17 sec) 
Heartbeat CPU 0 instructions: 37000003 cycles: 39376733 heartbeat IPC: 0.779519 cumulative IPC: 0.758736 (Simulation time: 0 hr 51 min 40 sec) 
Heartbeat CPU 0 instructions: 38000001 cycles: 41331328 heartbeat IPC: 0.511614 cumulative IPC: 0.745869 (Simulation time: 0 hr 53 min 6 sec) 
Heartbeat CPU 0 instructions: 39000003 cycles: 42453985 heartbeat IPC: 0.890746 cumulative IPC: 0.750076 (Simulation time: 0 hr 54 min 31 sec) 
Heartbeat CPU 0 instructions: 40000000 cycles: 43420918 heartbeat IPC: 1.03419 cumulative IPC: 0.757008 (Simulation time: 0 hr 55 min 48 sec) 
Heartbeat CPU 0 instructions: 41000003 cycles: 45306962 heartbeat IPC: 0.530212 cumulative IPC: 0.746705 (Simulation time: 0 hr 57 min 19 sec) 
Heartbeat CPU 0 instructions: 42000002 cycles: 46598773 heartbeat IPC: 0.774106 cumulative IPC: 0.747532 (Simulation time: 0 hr 58 min 47 sec) 
Heartbeat CPU 0 instructions: 43000001 cycles: 47667568 heartbeat IPC: 0.935632 cumulative IPC: 0.752114 (Simulation time: 1 hr 0 min 6 sec) 
Heartbeat CPU 0 instructions: 44000000 cycles: 49110869 heartbeat IPC: 0.692855 cumulative IPC: 0.750226 (Simulation time: 1 hr 1 min 35 sec) 
Heartbeat CPU 0 instructions: 45000002 cycles: 50675869 heartbeat IPC: 0.638979 cumulative IPC: 0.746513 (Simulation time: 1 hr 3 min 2 sec) 
Heartbeat CPU 0 instructions: 46000003 cycles: 51730036 heartbeat IPC: 0.948617 cumulative IPC: 0.750957 (Simulation time: 1 hr 4 min 22 sec) 
Heartbeat CPU 0 instructions: 47000000 cycles: 52669758 heartbeat IPC: 1.06414 cumulative IPC: 0.756978 (Simulation time: 1 hr 5 min 41 sec) 
Heartbeat CPU 0 instructions: 48000000 cycles: 54242629 heartbeat IPC: 0.63578 cumulative IPC: 0.7532 (Simulation time: 1 hr 7 min 8 sec) 
Heartbeat CPU 0 instructions: 49000000 cycles: 55326697 heartbeat IPC: 0.922451 cumulative IPC: 0.75676 (Simulation time: 1 hr 8 min 31 sec) 
Heartbeat CPU 0 instructions: 50000000 cycles: 56287546 heartbeat IPC: 1.04075 cumulative IPC: 0.761958 (Simulation time: 1 hr 9 min 52 sec) 
Heartbeat CPU 0 instructions: 51000003 cycles: 58131016 heartbeat IPC: 0.542457 cumulative IPC: 0.754511 (Simulation time: 1 hr 11 min 22 sec) 
Heartbeat CPU 0 instructions: 52000000 cycles: 59275061 heartbeat IPC: 0.874089 cumulative IPC: 0.756977 (Simulation time: 1 hr 12 min 47 sec) 
Heartbeat CPU 0 instructions: 53000002 cycles: 60301203 heartbeat IPC: 0.974526 cumulative IPC: 0.760927 (Simulation time: 1 hr 14 min 6 sec) 
Heartbeat CPU 0 instructions: 54000003 cycles: 61941643 heartbeat IPC: 0.609593 cumulative IPC: 0.756658 (Simulation time: 1 hr 15 min 37 sec) 
Heartbeat CPU 0 instructions: 55000001 cycles: 63202958 heartbeat IPC: 0.792822 cumulative IPC: 0.757426 (Simulation time: 1 hr 17 min 3 sec) 
Heartbeat CPU 0 instructions: 56000000 cycles: 64313873 heartbeat IPC: 0.900158 cumulative IPC: 0.760046 (Simulation time: 1 hr 18 min 25 sec) 
Heartbeat CPU 0 instructions: 57000000 cycles: 65555692 heartbeat IPC: 0.80527 cumulative IPC: 0.760955 (Simulation time: 1 hr 19 min 46 sec) 
Heartbeat CPU 0 instructions: 58000000 cycles: 67229691 heartbeat IPC: 0.597372 cumulative IPC: 0.756639 (Simulation time: 1 hr 21 min 17 sec) 
Heartbeat CPU 0 instructions: 59000001 cycles: 68288122 heartbeat IPC: 0.944796 cumulative IPC: 0.759726 (Simulation time: 1 hr 22 min 41 sec) 
Heartbeat CPU 0 instructions: 60000000 cycles: 69260063 heartbeat IPC: 1.02887 cumulative IPC: 0.763722 (Simulation time: 1 hr 24 min 8 sec) 
Heartbeat CPU 0 instructions: 61000000 cycles: 71184556 heartbeat IPC: 0.519617 cumulative IPC: 0.756751 (Simulation time: 1 hr 25 min 36 sec) 
Heartbeat CPU 0 instructions: 62000002 cycles: 72343489 heartbeat IPC: 0.862864 cumulative IPC: 0.758545 (Simulation time: 1 hr 26 min 58 sec) 
Heartbeat CPU 0 instructions: 63000003 cycles: 73552291 heartbeat IPC: 0.827266 cumulative IPC: 0.759736 (Simulation time: 1 hr 28 min 21 sec) 
Heartbeat CPU 0 instructions: 64000000 cycles: 74632242 heartbeat IPC: 0.925965 cumulative IPC: 0.76227 (Simulation time: 1 hr 29 min 42 sec) 
Heartbeat CPU 0 instructions: 65000000 cycles: 76083026 heartbeat IPC: 0.689282 cumulative IPC: 0.760805 (Simulation time: 1 hr 31 min 6 sec) 
Heartbeat CPU 0 instructions: 66000001 cycles: 77525955 heartbeat IPC: 0.693035 cumulative IPC: 0.759479 (Simulation time: 1 hr 32 min 32 sec) 
Heartbeat CPU 0 instructions: 67000003 cycles: 78634177 heartbeat IPC: 0.902348 cumulative IPC: 0.761595 (Simulation time: 1 hr 33 min 58 sec) 
Heartbeat CPU 0 instructions: 68000000 cycles: 79706817 heartbeat IPC: 0.932276 cumulative IPC: 0.764006 (Simulation time: 1 hr 35 min 20 sec) 
Heartbeat CPU 0 instructions: 69000003 cycles: 81493231 heartbeat IPC: 0.559782 cumulative IPC: 0.759311 (Simulation time: 1 hr 36 min 47 sec) 
Heartbeat CPU 0 instructions: 70000003 cycles: 82638682 heartbeat IPC: 0.873019 cumulative IPC: 0.760963 (Simulation time: 1 hr 38 min 12 sec) 
Heartbeat CPU 0 instructions: 71000001 cycles: 83656705 heartbeat IPC: 0.982294 cumulative IPC: 0.763784 (Simulation time: 1 hr 39 min 36 sec) 
Heartbeat CPU 0 instructions: 72000000 cycles: 85435364 heartbeat IPC: 0.562221 cumulative IPC: 0.759393 (Simulation time: 1 hr 41 min 4 sec) 
Heartbeat CPU 0 instructions: 73000001 cycles: 86626400 heartbeat IPC: 0.839606 cumulative IPC: 0.760546 (Simulation time: 1 hr 42 min 28 sec) 
Heartbeat CPU 0 instructions: 74000001 cycles: 87720634 heartbeat IPC: 0.913881 cumulative IPC: 0.762546 (Simulation time: 1 hr 43 min 52 sec) 
Heartbeat CPU 0 instructions: 75000003 cycles: 89240739 heartbeat IPC: 0.657851 cumulative IPC: 0.760683 (Simulation time: 1 hr 45 min 23 sec) 
Heartbeat CPU 0 instructions: 76000000 cycles: 90565531 heartbeat IPC: 0.754833 cumulative IPC: 0.760594 (Simulation time: 1 hr 46 min 50 sec) 
Heartbeat CPU 0 instructions: 77000002 cycles: 91689394 heartbeat IPC: 0.88979 cumulative IPC: 0.762246 (Simulation time: 1 hr 48 min 17 sec) 
Heartbeat CPU 0 instructions: 78000002 cycles: 92823759 heartbeat IPC: 0.88155 cumulative IPC: 0.763766 (Simulation time: 1 hr 49 min 42 sec) 
Heartbeat CPU 0 instructions: 79000001 cycles: 94476787 heartbeat IPC: 0.60495 cumulative IPC: 0.760871 (Simulation time: 1 hr 51 min 12 sec) 
Heartbeat CPU 0 instructions: 80000000 cycles: 95591980 heartbeat IPC: 0.896705 cumulative IPC: 0.762521 (Simulation time: 1 hr 52 min 37 sec) 
Heartbeat CPU 0 instructions: 81000003 cycles: 96601406 heartbeat IPC: 0.990665 cumulative IPC: 0.765002 (Simulation time: 1 hr 54 min 0 sec) 
Heartbeat CPU 0 instructions: 82000003 cycles: 98285759 heartbeat IPC: 0.5937 cumulative IPC: 0.761949 (Simulation time: 1 hr 55 min 32 sec) 
Heartbeat CPU 0 instructions: 83000001 cycles: 99463358 heartbeat IPC: 0.849184 cumulative IPC: 0.763023 (Simulation time: 1 hr 56 min 59 sec) 
Heartbeat CPU 0 instructions: 84000000 cycles: 100510115 heartbeat IPC: 0.955331 cumulative IPC: 0.765104 (Simulation time: 1 hr 58 min 24 sec) 
Heartbeat CPU 0 instructions: 85000002 cycles: 102043651 heartbeat IPC: 0.652089 cumulative IPC: 0.76334 (Simulation time: 1 hr 59 min 51 sec) 
Heartbeat CPU 0 instructions: 86000003 cycles: 103302914 heartbeat IPC: 0.794116 cumulative IPC: 0.763729 (Simulation time: 2 hr 1 min 12 sec) 
Heartbeat CPU 0 instructions: 87000003 cycles: 104432551 heartbeat IPC: 0.88524 cumulative IPC: 0.765093 (Simulation time: 2 hr 2 min 33 sec) 
Heartbeat CPU 0 instructions: 88000000 cycles: 105725959 heartbeat IPC: 0.773149 cumulative IPC: 0.765195 (Simulation time: 2 hr 4 min 0 sec) 
Heartbeat CPU 0 instructions: 89000000 cycles: 107184770 heartbeat IPC: 0.68549 cumulative IPC: 0.764071 (Simulation time: 2 hr 5 min 28 sec) 
Heartbeat CPU 0 instructions: 90000000 cycles: 108293911 heartbeat IPC: 0.901599 cumulative IPC: 0.76553 (Simulation time: 2 hr 6 min 53 sec) 
Heartbeat CPU 0 instructions: 91000000 cycles: 109296725 heartbeat IPC: 0.997194 cumulative IPC: 0.767732 (Simulation time: 2 hr 8 min 16 sec) 
Heartbeat CPU 0 instructions: 92000000 cycles: 111056093 heartbeat IPC: 0.568386 cumulative IPC: 0.764463 (Simulation time: 2 hr 9 min 49 sec) 
Heartbeat CPU 0 instructions: 93000001 cycles: 112197241 heartbeat IPC: 0.876311 cumulative IPC: 0.76564 (Simulation time: 2 hr 11 min 13 sec) 
Heartbeat CPU 0 instructions: 94000000 cycles: 113252595 heartbeat IPC: 0.947548 cumulative IPC: 0.767394 (Simulation time: 2 hr 12 min 35 sec) 
Heartbeat CPU 0 instructions: 95000003 cycles: 114900213 heartbeat IPC: 0.606939 cumulative IPC: 0.765015 (Simulation time: 2 hr 14 min 3 sec) 
Heartbeat CPU 0 instructions: 96000000 cycles: 116119598 heartbeat IPC: 0.820083 cumulative IPC: 0.765612 (Simulation time: 2 hr 15 min 29 sec) 
Heartbeat CPU 0 instructions: 97000002 cycles: 117231565 heartbeat IPC: 0.899309 cumulative IPC: 0.766923 (Simulation time: 2 hr 16 min 50 sec) 
Heartbeat CPU 0 instructions: 98000000 cycles: 118668329 heartbeat IPC: 0.696007 cumulative IPC: 0.766036 (Simulation time: 2 hr 18 min 14 sec) 
Heartbeat CPU 0 instructions: 99000003 cycles: 120258073 heartbeat IPC: 0.629034 cumulative IPC: 0.764166 (Simulation time: 2 hr 19 min 34 sec) 
Heartbeat CPU 0 instructions: 100000000 cycles: 121411366 heartbeat IPC: 0.86708 cumulative IPC: 0.765175 (Simulation time: 2 hr 20 min 58 sec) 
Heartbeat CPU 0 instructions: 101000000 cycles: 122431815 heartbeat IPC: 0.979961 cumulative IPC: 0.767022 (Simulation time: 2 hr 22 min 18 sec) 
Heartbeat CPU 0 instructions: 102000001 cycles: 124593475 heartbeat IPC: 0.462608 cumulative IPC: 0.761575 (Simulation time: 2 hr 23 min 47 sec) 
Heartbeat CPU 0 instructions: 103000000 cycles: 125928904 heartbeat IPC: 0.748822 cumulative IPC: 0.761436 (Simulation time: 2 hr 25 min 8 sec) 
Heartbeat CPU 0 instructions: 104000000 cycles: 127165403 heartbeat IPC: 0.808735 cumulative IPC: 0.76191 (Simulation time: 2 hr 26 min 27 sec) 
Heartbeat CPU 0 instructions: 105000003 cycles: 128352730 heartbeat IPC: 0.84223 cumulative IPC: 0.762675 (Simulation time: 2 hr 27 min 46 sec) 
Heartbeat CPU 0 instructions: 106000000 cycles: 129423998 heartbeat IPC: 0.93347 cumulative IPC: 0.764132 (Simulation time: 2 hr 28 min 57 sec) 
Heartbeat CPU 0 instructions: 107000001 cycles: 131598666 heartbeat IPC: 0.459841 cumulative IPC: 0.758954 (Simulation time: 2 hr 30 min 18 sec) 
Heartbeat CPU 0 instructions: 108000000 cycles: 132925097 heartbeat IPC: 0.753902 cumulative IPC: 0.758902 (Simulation time: 2 hr 31 min 30 sec) 
Heartbeat CPU 0 instructions: 109000000 cycles: 134115759 heartbeat IPC: 0.839869 cumulative IPC: 0.759642 (Simulation time: 2 hr 32 min 40 sec) 
Heartbeat CPU 0 instructions: 110000003 cycles: 135625394 heartbeat IPC: 0.662414 cumulative IPC: 0.758529 (Simulation time: 2 hr 33 min 46 sec) 
Finished CPU 0 instructions: 100000002 cycles: 131834177 cummulative IPC: 0.758529 (Simulation time: 2 hr 33 min 46 sec) 

ChampSim completed all CPUs

Region of Interest Statistics

CPU 0 cummulative IPC: 0.758529 instructions: 100000002 cycles: 131834177
LLC TOTAL     ACCESS:    1449260  HIT:     993556  MISS:     455704
LLC LOAD      ACCESS:    1202458  HIT:     781411  MISS:     421047
LLC RFO       ACCESS:     114010  HIT:      94033  MISS:      19977
LLC PREFETCH  ACCESS:          0  HIT:          0  MISS:          0
LLC WRITEBACK ACCESS:     132792  HIT:     118112  MISS:      14680
