
*** ChampSim Multicore Out-of-Order Simulator ***

Warmup Instructions: 10000000
Simulation Instructions: 100000000
Configuration: 1
Number of CPUs: 1
LLC sets: 2048
LLC ways: 16
Off-chip DRAM Channels: 1 Width: 64-bit Data Rate: 1600 MT/s

CPU 0 runs /datasets/cs240c-wi22-a00-public/data/Assignment2-gz/calculix_2655B.trace.gz
config 1, num_core 1, llc_sets 2048
Heartbeat CPU 0 instructions: 1000003 cycles: 370000 heartbeat IPC: 2.70271 cumulative IPC: 2.70271 (Simulation time: 0 hr 1 min 5 sec) 
Heartbeat CPU 0 instructions: 2000001 cycles: 745118 heartbeat IPC: 2.66582 cumulative IPC: 2.68414 (Simulation time: 0 hr 2 min 10 sec) 
Heartbeat CPU 0 instructions: 3000002 cycles: 1119750 heartbeat IPC: 2.66929 cumulative IPC: 2.67917 (Simulation time: 0 hr 3 min 13 sec) 
Heartbeat CPU 0 instructions: 4000000 cycles: 1486040 heartbeat IPC: 2.73007 cumulative IPC: 2.69172 (Simulation time: 0 hr 4 min 15 sec) 
Heartbeat CPU 0 instructions: 5000003 cycles: 1858729 heartbeat IPC: 2.68321 cumulative IPC: 2.69001 (Simulation time: 0 hr 5 min 16 sec) 
Heartbeat CPU 0 instructions: 6000003 cycles: 2232997 heartbeat IPC: 2.67188 cumulative IPC: 2.68697 (Simulation time: 0 hr 6 min 17 sec) 
Heartbeat CPU 0 instructions: 7000002 cycles: 2608214 heartbeat IPC: 2.66512 cumulative IPC: 2.68383 (Simulation time: 0 hr 7 min 16 sec) 
Heartbeat CPU 0 instructions: 8000000 cycles: 2983018 heartbeat IPC: 2.66806 cumulative IPC: 2.68185 (Simulation time: 0 hr 8 min 15 sec) 
Heartbeat CPU 0 instructions: 9000001 cycles: 3357856 heartbeat IPC: 2.66782 cumulative IPC: 2.68028 (Simulation time: 0 hr 9 min 16 sec) 
Heartbeat CPU 0 instructions: 10000000 cycles: 3723276 heartbeat IPC: 2.73657 cumulative IPC: 2.68581 (Simulation time: 0 hr 10 min 17 sec) 

Warmup complete CPU 0 instructions: 10000004 cycles: 3723277 (Simulation time: 0 hr 10 min 17 sec) 

Heartbeat CPU 0 instructions: 11000001 cycles: 4307740 heartbeat IPC: 1.71097 cumulative IPC: 1.71097 (Simulation time: 0 hr 11 min 30 sec) 
Heartbeat CPU 0 instructions: 12000000 cycles: 4880433 heartbeat IPC: 1.74613 cumulative IPC: 1.72837 (Simulation time: 0 hr 12 min 41 sec) 
Heartbeat CPU 0 instructions: 13000000 cycles: 5457989 heartbeat IPC: 1.73143 cumulative IPC: 1.72939 (Simulation time: 0 hr 13 min 52 sec) 
Heartbeat CPU 0 instructions: 14000001 cycles: 6026825 heartbeat IPC: 1.75798 cumulative IPC: 1.73645 (Simulation time: 0 hr 15 min 4 sec) 
Heartbeat CPU 0 instructions: 15000000 cycles: 6588700 heartbeat IPC: 1.77975 cumulative IPC: 1.74494 (Simulation time: 0 hr 16 min 16 sec) 
Heartbeat CPU 0 instructions: 16000000 cycles: 7529391 heartbeat IPC: 1.06305 cumulative IPC: 1.57641 (Simulation time: 0 hr 17 min 33 sec) 
Heartbeat CPU 0 instructions: 17000002 cycles: 8093297 heartbeat IPC: 1.77335 cumulative IPC: 1.60182 (Simulation time: 0 hr 18 min 46 sec) 
Heartbeat CPU 0 instructions: 18000000 cycles: 8651964 heartbeat IPC: 1.78997 cumulative IPC: 1.62315 (Simulation time: 0 hr 19 min 57 sec) 
Heartbeat CPU 0 instructions: 19000000 cycles: 9210140 heartbeat IPC: 1.79155 cumulative IPC: 1.64028 (Simulation time: 0 hr 21 min 14 sec) 
Heartbeat CPU 0 instructions: 20000000 cycles: 9774440 heartbeat IPC: 1.77211 cumulative IPC: 1.65257 (Simulation time: 0 hr 22 min 32 sec) 
Heartbeat CPU 0 instructions: 21000000 cycles: 10336884 heartbeat IPC: 1.77795 cumulative IPC: 1.66324 (Simulation time: 0 hr 23 min 46 sec) 
Heartbeat CPU 0 instructions: 22000003 cycles: 11276466 heartbeat IPC: 1.06431 cumulative IPC: 1.58873 (Simulation time: 0 hr 25 min 3 sec) 
Heartbeat CPU 0 instructions: 23000000 cycles: 11849874 heartbeat IPC: 1.74395 cumulative IPC: 1.59969 (Simulation time: 0 hr 26 min 14 sec) 
Heartbeat CPU 0 instructions: 24000000 cycles: 12419342 heartbeat IPC: 1.75602 cumulative IPC: 1.60992 (Simulation time: 0 hr 27 min 28 sec) 
Heartbeat CPU 0 instructions: 25000003 cycles: 12988172 heartbeat IPC: 1.758 cumulative IPC: 1.61901 (Simulation time: 0 hr 28 min 42 sec) 
Heartbeat CPU 0 instructions: 26000001 cycles: 13550752 heartbeat IPC: 1.77752 cumulative IPC: 1.62809 (Simulation time: 0 hr 29 min 57 sec) 
Heartbeat CPU 0 instructions: 27000000 cycles: 14163157 heartbeat IPC: 1.6329 cumulative IPC: 1.62837 (Simulation time: 0 hr 31 min 8 sec) 
Heartbeat CPU 0 instructions: 28000000 cycles: 15047670 heartbeat IPC: 1.13057 cumulative IPC: 1.58949 (Simulation time: 0 hr 32 min 26 sec) 
Heartbeat CPU 0 instructions: 29000003 cycles: 15606030 heartbeat IPC: 1.79096 cumulative IPC: 1.59896 (Simulation time: 0 hr 33 min 37 sec) 
Heartbeat CPU 0 instructions: 30000001 cycles: 16168819 heartbeat IPC: 1.77686 cumulative IPC: 1.607 (Simulation time: 0 hr 34 min 50 sec) 
Heartbeat CPU 0 instructions: 31000000 cycles: 16730117 heartbeat IPC: 1.78158 cumulative IPC: 1.61453 (Simulation time: 0 hr 36 min 2 sec) 
Heartbeat CPU 0 instructions: 32000000 cycles: 17285802 heartbeat IPC: 1.79958 cumulative IPC: 1.62212 (Simulation time: 0 hr 37 min 15 sec) 
Heartbeat CPU 0 instructions: 33000003 cycles: 17981751 heartbeat IPC: 1.43689 cumulative IPC: 1.61308 (Simulation time: 0 hr 38 min 26 sec) 
Heartbeat CPU 0 instructions: 34000002 cycles: 18832364 heartbeat IPC: 1.17562 cumulative IPC: 1.58845 (Simulation time: 0 hr 39 min 46 sec) 
Heartbeat CPU 0 instructions: 35000002 cycles: 19406501 heartbeat IPC: 1.74174 cumulative IPC: 1.59406 (Simulation time: 0 hr 40 min 59 sec) 
Heartbeat CPU 0 instructions: 36000000 cycles: 19976805 heartbeat IPC: 1.75345 cumulative IPC: 1.59965 (Simulation time: 0 hr 42 min 11 sec) 
Heartbeat CPU 0 instructions: 37000002 cycles: 20547441 heartbeat IPC: 1.75243 cumulative IPC: 1.60483 (Simulation time: 0 hr 43 min 24 sec) 
Heartbeat CPU 0 instructions: 38000003 cycles: 21112351 heartbeat IPC: 1.7702 cumulative IPC: 1.61021 (Simulation time: 0 hr 44 min 37 sec) 
Heartbeat CPU 0 instructions: 39000002 cycles: 21830796 heartbeat IPC: 1.39189 cumulative IPC: 1.60154 (Simulation time: 0 hr 45 min 53 sec) 
Heartbeat CPU 0 instructions: 40000000 cycles: 22512578 heartbeat IPC: 1.46674 cumulative IPC: 1.59665 (Simulation time: 0 hr 47 min 6 sec) 
Heartbeat CPU 0 instructions: 41000001 cycles: 23187100 heartbeat IPC: 1.48253 cumulative IPC: 1.5927 (Simulation time: 0 hr 48 min 21 sec) 
Heartbeat CPU 0 instructions: 42000003 cycles: 23978617 heartbeat IPC: 1.2634 cumulative IPC: 1.57983 (Simulation time: 0 hr 49 min 32 sec) 
Heartbeat CPU 0 instructions: 43000001 cycles: 24642839 heartbeat IPC: 1.50552 cumulative IPC: 1.57747 (Simulation time: 0 hr 50 min 47 sec) 
Heartbeat CPU 0 instructions: 44000000 cycles: 25578068 heartbeat IPC: 1.06926 cumulative IPC: 1.55572 (Simulation time: 0 hr 52 min 7 sec) 
Heartbeat CPU 0 instructions: 45000002 cycles: 26100171 heartbeat IPC: 1.91533 cumulative IPC: 1.56411 (Simulation time: 0 hr 53 min 16 sec) 
Heartbeat CPU 0 instructions: 46000003 cycles: 26833216 heartbeat IPC: 1.36417 cumulative IPC: 1.55777 (Simulation time: 0 hr 54 min 30 sec) 
Heartbeat CPU 0 instructions: 47000001 cycles: 27436690 heartbeat IPC: 1.65707 cumulative IPC: 1.5603 (Simulation time: 0 hr 55 min 38 sec) 
Heartbeat CPU 0 instructions: 48000000 cycles: 28161283 heartbeat IPC: 1.38008 cumulative IPC: 1.55495 (Simulation time: 0 hr 56 min 47 sec) 
Heartbeat CPU 0 instructions: 49000000 cycles: 28659339 heartbeat IPC: 2.00781 cumulative IPC: 1.564 (Simulation time: 0 hr 58 min 4 sec) 
Heartbeat CPU 0 instructions: 50000002 cycles: 29239963 heartbeat IPC: 1.72229 cumulative IPC: 1.5676 (Simulation time: 0 hr 59 min 16 sec) 
Heartbeat CPU 0 instructions: 51000000 cycles: 29820100 heartbeat IPC: 1.72373 cumulative IPC: 1.57107 (Simulation time: 1 hr 0 min 42 sec) 
Heartbeat CPU 0 instructions: 52000000 cycles: 30290479 heartbeat IPC: 2.12595 cumulative IPC: 1.5809 (Simulation time: 1 hr 2 min 7 sec) 
Heartbeat CPU 0 instructions: 53000002 cycles: 30989447 heartbeat IPC: 1.43068 cumulative IPC: 1.57705 (Simulation time: 1 hr 3 min 39 sec) 
Heartbeat CPU 0 instructions: 54000002 cycles: 32084218 heartbeat IPC: 0.913433 cumulative IPC: 1.55143 (Simulation time: 1 hr 5 min 25 sec) 
Heartbeat CPU 0 instructions: 55000002 cycles: 32904400 heartbeat IPC: 1.21924 cumulative IPC: 1.54209 (Simulation time: 1 hr 7 min 3 sec) 
Heartbeat CPU 0 instructions: 56000000 cycles: 33501217 heartbeat IPC: 1.67555 cumulative IPC: 1.54477 (Simulation time: 1 hr 8 min 41 sec) 
Heartbeat CPU 0 instructions: 57000000 cycles: 34254293 heartbeat IPC: 1.32789 cumulative IPC: 1.53942 (Simulation time: 1 hr 10 min 14 sec) 
Heartbeat CPU 0 instructions: 58000001 cycles: 34753400 heartbeat IPC: 2.00358 cumulative IPC: 1.54688 (Simulation time: 1 hr 11 min 55 sec) 
Heartbeat CPU 0 instructions: 59000000 cycles: 35479712 heartbeat IPC: 1.37682 cumulative IPC: 1.54299 (Simulation time: 1 hr 13 min 36 sec) 
Heartbeat CPU 0 instructions: 60000000 cycles: 36035714 heartbeat IPC: 1.79855 cumulative IPC: 1.54739 (Simulation time: 1 hr 15 min 11 sec) 
Heartbeat CPU 0 instructions: 61000002 cycles: 36633988 heartbeat IPC: 1.67148 cumulative IPC: 1.54965 (Simulation time: 1 hr 16 min 48 sec) 
Heartbeat CPU 0 instructions: 62000003 cycles: 37265014 heartbeat IPC: 1.58472 cumulative IPC: 1.55031 (Simulation time: 1 hr 18 min 28 sec) 
Heartbeat CPU 0 instructions: 63000002 cycles: 38153776 heartbeat IPC: 1.12516 cumulative IPC: 1.53933 (Simulation time: 1 hr 20 min 22 sec) 
Heartbeat CPU 0 instructions: 64000000 cycles: 38755284 heartbeat IPC: 1.66249 cumulative IPC: 1.54145 (Simulation time: 1 hr 22 min 1 sec) 
Heartbeat CPU 0 instructions: 65000001 cycles: 39382826 heartbeat IPC: 1.59352 cumulative IPC: 1.54236 (Simulation time: 1 hr 23 min 41 sec) 
Heartbeat CPU 0 instructions: 66000001 cycles: 40354802 heartbeat IPC: 1.02883 cumulative IPC: 1.52874 (Simulation time: 1 hr 25 min 24 sec) 
Heartbeat CPU 0 instructions: 67000001 cycles: 41381610 heartbeat IPC: 0.973892 cumulative IPC: 1.51361 (Simulation time: 1 hr 27 min 5 sec) 
Heartbeat CPU 0 instructions: 68000000 cycles: 42387124 heartbeat IPC: 0.994515 cumulative IPC: 1.50011 (Simulation time: 1 hr 28 min 54 sec) 
Heartbeat CPU 0 instructions: 69000001 cycles: 43350144 heartbeat IPC: 1.0384 cumulative IPC: 1.48889 (Simulation time: 1 hr 30 min 38 sec) 
Heartbeat CPU 0 instructions: 70000002 cycles: 44047416 heartbeat IPC: 1.43416 cumulative IPC: 1.48794 (Simulation time: 1 hr 32 min 7 sec) 
Heartbeat CPU 0 instructions: 71000001 cycles: 44669141 heartbeat IPC: 1.60843 cumulative IPC: 1.48977 (Simulation time: 1 hr 33 min 39 sec) 
Heartbeat CPU 0 instructions: 72000000 cycles: 45276225 heartbeat IPC: 1.64722 cumulative IPC: 1.49207 (Simulation time: 1 hr 35 min 8 sec) 
Heartbeat CPU 0 instructions: 73000000 cycles: 45886273 heartbeat IPC: 1.63922 cumulative IPC: 1.4942 (Simulation time: 1 hr 36 min 35 sec) 
Heartbeat CPU 0 instructions: 74000000 cycles: 46480962 heartbeat IPC: 1.68155 cumulative IPC: 1.49681 (Simulation time: 1 hr 38 min 9 sec) 
Heartbeat CPU 0 instructions: 75000000 cycles: 47329941 heartbeat IPC: 1.17789 cumulative IPC: 1.4906 (Simulation time: 1 hr 39 min 40 sec) 
Heartbeat CPU 0 instructions: 76000000 cycles: 48232182 heartbeat IPC: 1.10835 cumulative IPC: 1.48285 (Simulation time: 1 hr 41 min 23 sec) 
Heartbeat CPU 0 instructions: 77000003 cycles: 48826364 heartbeat IPC: 1.68299 cumulative IPC: 1.48549 (Simulation time: 1 hr 43 min 4 sec) 
Heartbeat CPU 0 instructions: 78000002 cycles: 49412917 heartbeat IPC: 1.70487 cumulative IPC: 1.4883 (Simulation time: 1 hr 44 min 36 sec) 
Heartbeat CPU 0 instructions: 79000003 cycles: 49989949 heartbeat IPC: 1.73301 cumulative IPC: 1.49135 (Simulation time: 1 hr 46 min 9 sec) 
Heartbeat CPU 0 instructions: 80000000 cycles: 50559006 heartbeat IPC: 1.75729 cumulative IPC: 1.49459 (Simulation time: 1 hr 47 min 38 sec) 
Heartbeat CPU 0 instructions: 81000001 cycles: 51128641 heartbeat IPC: 1.75551 cumulative IPC: 1.49772 (Simulation time: 1 hr 49 min 9 sec) 
Heartbeat CPU 0 instructions: 82000001 cycles: 51695271 heartbeat IPC: 1.76482 cumulative IPC: 1.50088 (Simulation time: 1 hr 50 min 39 sec) 
Heartbeat CPU 0 instructions: 83000001 cycles: 52264856 heartbeat IPC: 1.75566 cumulative IPC: 1.50387 (Simulation time: 1 hr 52 min 1 sec) 
Heartbeat CPU 0 instructions: 84000000 cycles: 52970843 heartbeat IPC: 1.41646 cumulative IPC: 1.50261 (Simulation time: 1 hr 53 min 25 sec) 
Heartbeat CPU 0 instructions: 85000002 cycles: 53671008 heartbeat IPC: 1.42824 cumulative IPC: 1.50157 (Simulation time: 1 hr 54 min 45 sec) 
Heartbeat CPU 0 instructions: 86000000 cycles: 54516253 heartbeat IPC: 1.18309 cumulative IPC: 1.49627 (Simulation time: 1 hr 56 min 6 sec) 
Heartbeat CPU 0 instructions: 87000003 cycles: 55383905 heartbeat IPC: 1.15254 cumulative IPC: 1.4905 (Simulation time: 1 hr 57 min 26 sec) 
Heartbeat CPU 0 instructions: 88000000 cycles: 55990479 heartbeat IPC: 1.6486 cumulative IPC: 1.49233 (Simulation time: 1 hr 58 min 47 sec) 
Heartbeat CPU 0 instructions: 89000001 cycles: 56523839 heartbeat IPC: 1.87491 cumulative IPC: 1.4962 (Simulation time: 2 hr 0 min 1 sec) 
Heartbeat CPU 0 instructions: 90000001 cycles: 57047358 heartbeat IPC: 1.91015 cumulative IPC: 1.50026 (Simulation time: 2 hr 1 min 17 sec) 
Heartbeat CPU 0 instructions: 91000002 cycles: 57885775 heartbeat IPC: 1.19273 cumulative IPC: 1.4955 (Simulation time: 2 hr 2 min 30 sec) 
Heartbeat CPU 0 instructions: 92000000 cycles: 58580396 heartbeat IPC: 1.43963 cumulative IPC: 1.49479 (Simulation time: 2 hr 3 min 48 sec) 
Heartbeat CPU 0 instructions: 93000000 cycles: 59164398 heartbeat IPC: 1.71232 cumulative IPC: 1.49708 (Simulation time: 2 hr 5 min 2 sec) 
Heartbeat CPU 0 instructions: 94000003 cycles: 59727261 heartbeat IPC: 1.77664 cumulative IPC: 1.49989 (Simulation time: 2 hr 6 min 15 sec) 
Heartbeat CPU 0 instructions: 95000001 cycles: 60518712 heartbeat IPC: 1.2635 cumulative IPC: 1.4966 (Simulation time: 2 hr 7 min 28 sec) 
Heartbeat CPU 0 instructions: 96000000 cycles: 61102856 heartbeat IPC: 1.7119 cumulative IPC: 1.49879 (Simulation time: 2 hr 8 min 39 sec) 
Heartbeat CPU 0 instructions: 97000002 cycles: 61657409 heartbeat IPC: 1.80326 cumulative IPC: 1.50171 (Simulation time: 2 hr 9 min 51 sec) 
Heartbeat CPU 0 instructions: 98000001 cycles: 62183124 heartbeat IPC: 1.90217 cumulative IPC: 1.50531 (Simulation time: 2 hr 11 min 4 sec) 
Heartbeat CPU 0 instructions: 99000003 cycles: 62956821 heartbeat IPC: 1.2925 cumulative IPC: 1.50253 (Simulation time: 2 hr 12 min 17 sec) 
Heartbeat CPU 0 instructions: 100000000 cycles: 63557010 heartbeat IPC: 1.66614 cumulative IPC: 1.50417 (Simulation time: 2 hr 13 min 30 sec) 
Heartbeat CPU 0 instructions: 101000002 cycles: 64101260 heartbeat IPC: 1.83739 cumulative IPC: 1.50717 (Simulation time: 2 hr 14 min 40 sec) 
Heartbeat CPU 0 instructions: 102000003 cycles: 64624093 heartbeat IPC: 1.91266 cumulative IPC: 1.51065 (Simulation time: 2 hr 15 min 46 sec) 
Heartbeat CPU 0 instructions: 103000003 cycles: 65225287 heartbeat IPC: 1.66336 cumulative IPC: 1.51215 (Simulation time: 2 hr 16 min 54 sec) 
Heartbeat CPU 0 instructions: 104000000 cycles: 65970378 heartbeat IPC: 1.34211 cumulative IPC: 1.51011 (Simulation time: 2 hr 18 min 5 sec) 
Heartbeat CPU 0 instructions: 105000001 cycles: 66444673 heartbeat IPC: 2.10839 cumulative IPC: 1.51463 (Simulation time: 2 hr 19 min 8 sec) 
Heartbeat CPU 0 instructions: 106000001 cycles: 66991500 heartbeat IPC: 1.82873 cumulative IPC: 1.51735 (Simulation time: 2 hr 20 min 12 sec) 
Heartbeat CPU 0 instructions: 107000002 cycles: 67574256 heartbeat IPC: 1.71599 cumulative IPC: 1.51916 (Simulation time: 2 hr 21 min 21 sec) 
Heartbeat CPU 0 instructions: 108000000 cycles: 68043905 heartbeat IPC: 2.12925 cumulative IPC: 1.52362 (Simulation time: 2 hr 22 min 31 sec) 
Heartbeat CPU 0 instructions: 109000002 cycles: 68698720 heartbeat IPC: 1.52715 cumulative IPC: 1.52365 (Simulation time: 2 hr 23 min 37 sec) 
Heartbeat CPU 0 instructions: 110000003 cycles: 69167691 heartbeat IPC: 2.13233 cumulative IPC: 1.52801 (Simulation time: 2 hr 24 min 40 sec) 
Finished CPU 0 instructions: 100000003 cycles: 65444415 cummulative IPC: 1.52801 (Simulation time: 2 hr 24 min 40 sec) 

ChampSim completed all CPUs

Region of Interest Statistics

CPU 0 cummulative IPC: 1.52801 instructions: 100000003 cycles: 65444415
LLC TOTAL     ACCESS:     827374  HIT:     669754  MISS:     157620
LLC LOAD      ACCESS:     730855  HIT:     573711  MISS:     157144
LLC RFO       ACCESS:        414  HIT:        402  MISS:         12
LLC PREFETCH  ACCESS:          0  HIT:          0  MISS:          0
LLC WRITEBACK ACCESS:      96105  HIT:      95641  MISS:        464
