
*** ChampSim Multicore Out-of-Order Simulator ***

Warmup Instructions: 10000000
Simulation Instructions: 100000000
Configuration: 1
Number of CPUs: 1
LLC sets: 2048
LLC ways: 16
Off-chip DRAM Channels: 1 Width: 64-bit Data Rate: 1600 MT/s

CPU 0 runs /datasets/cs240c-wi22-a00-public/data/Assignment2-gz/astar_313B.trace.gz
config 1, num_core 1, llc_sets 2048
Heartbeat CPU 0 instructions: 1000001 cycles: 678666 heartbeat IPC: 1.47348 cumulative IPC: 1.47348 (Simulation time: 0 hr 1 min 46 sec) 
Heartbeat CPU 0 instructions: 2000003 cycles: 1269717 heartbeat IPC: 1.6919 cumulative IPC: 1.57516 (Simulation time: 0 hr 3 min 29 sec) 
Heartbeat CPU 0 instructions: 3000003 cycles: 1947268 heartbeat IPC: 1.4759 cumulative IPC: 1.54062 (Simulation time: 0 hr 5 min 15 sec) 
Heartbeat CPU 0 instructions: 4000000 cycles: 2625320 heartbeat IPC: 1.47481 cumulative IPC: 1.52362 (Simulation time: 0 hr 7 min 0 sec) 
Heartbeat CPU 0 instructions: 5000002 cycles: 3303287 heartbeat IPC: 1.475 cumulative IPC: 1.51364 (Simulation time: 0 hr 8 min 47 sec) 
Heartbeat CPU 0 instructions: 6000001 cycles: 3894323 heartbeat IPC: 1.69194 cumulative IPC: 1.5407 (Simulation time: 0 hr 10 min 31 sec) 
Heartbeat CPU 0 instructions: 7000001 cycles: 4467513 heartbeat IPC: 1.74462 cumulative IPC: 1.56687 (Simulation time: 0 hr 12 min 13 sec) 
Heartbeat CPU 0 instructions: 8000000 cycles: 5023419 heartbeat IPC: 1.79886 cumulative IPC: 1.59254 (Simulation time: 0 hr 13 min 59 sec) 
Heartbeat CPU 0 instructions: 9000001 cycles: 5588539 heartbeat IPC: 1.76954 cumulative IPC: 1.61044 (Simulation time: 0 hr 15 min 37 sec) 
Heartbeat CPU 0 instructions: 10000002 cycles: 6266103 heartbeat IPC: 1.47588 cumulative IPC: 1.59589 (Simulation time: 0 hr 17 min 16 sec) 

Warmup complete CPU 0 instructions: 10000002 cycles: 6266103 (Simulation time: 0 hr 17 min 16 sec) 

Heartbeat CPU 0 instructions: 11000000 cycles: 14134478 heartbeat IPC: 0.127091 cumulative IPC: 0.127091 (Simulation time: 0 hr 19 min 16 sec) 
Heartbeat CPU 0 instructions: 12000000 cycles: 22334129 heartbeat IPC: 0.121956 cumulative IPC: 0.124471 (Simulation time: 0 hr 21 min 17 sec) 
Heartbeat CPU 0 instructions: 13000003 cycles: 33102511 heartbeat IPC: 0.0928647 cumulative IPC: 0.111788 (Simulation time: 0 hr 23 min 45 sec) 
Heartbeat CPU 0 instructions: 14000002 cycles: 40960544 heartbeat IPC: 0.127258 cumulative IPC: 0.115292 (Simulation time: 0 hr 25 min 43 sec) 
Heartbeat CPU 0 instructions: 15000000 cycles: 48867415 heartbeat IPC: 0.126472 cumulative IPC: 0.117367 (Simulation time: 0 hr 27 min 38 sec) 
Heartbeat CPU 0 instructions: 16000000 cycles: 56657158 heartbeat IPC: 0.128374 cumulative IPC: 0.119069 (Simulation time: 0 hr 29 min 40 sec) 
Heartbeat CPU 0 instructions: 17000001 cycles: 64349517 heartbeat IPC: 0.129999 cumulative IPC: 0.120516 (Simulation time: 0 hr 31 min 36 sec) 
Heartbeat CPU 0 instructions: 18000000 cycles: 74871472 heartbeat IPC: 0.0950393 cumulative IPC: 0.116609 (Simulation time: 0 hr 33 min 58 sec) 
Heartbeat CPU 0 instructions: 19000000 cycles: 81900233 heartbeat IPC: 0.142273 cumulative IPC: 0.118994 (Simulation time: 0 hr 35 min 46 sec) 
Heartbeat CPU 0 instructions: 20000000 cycles: 89388211 heartbeat IPC: 0.133547 cumulative IPC: 0.120305 (Simulation time: 0 hr 37 min 37 sec) 
Heartbeat CPU 0 instructions: 21000003 cycles: 99032956 heartbeat IPC: 0.103684 cumulative IPC: 0.118577 (Simulation time: 0 hr 39 min 38 sec) 
Heartbeat CPU 0 instructions: 22000002 cycles: 107201060 heartbeat IPC: 0.122427 cumulative IPC: 0.118888 (Simulation time: 0 hr 41 min 45 sec) 
Heartbeat CPU 0 instructions: 23000002 cycles: 114425951 heartbeat IPC: 0.13841 cumulative IPC: 0.120192 (Simulation time: 0 hr 43 min 42 sec) 
Heartbeat CPU 0 instructions: 24000000 cycles: 121963416 heartbeat IPC: 0.13267 cumulative IPC: 0.121005 (Simulation time: 0 hr 45 min 38 sec) 
Heartbeat CPU 0 instructions: 25000001 cycles: 130606144 heartbeat IPC: 0.115704 cumulative IPC: 0.120637 (Simulation time: 0 hr 47 min 43 sec) 
Heartbeat CPU 0 instructions: 26000002 cycles: 137736024 heartbeat IPC: 0.140255 cumulative IPC: 0.121701 (Simulation time: 0 hr 49 min 38 sec) 
Heartbeat CPU 0 instructions: 27000003 cycles: 147736967 heartbeat IPC: 0.0999907 cumulative IPC: 0.120166 (Simulation time: 0 hr 51 min 49 sec) 
Heartbeat CPU 0 instructions: 28000000 cycles: 154417257 heartbeat IPC: 0.149694 cumulative IPC: 0.121498 (Simulation time: 0 hr 53 min 35 sec) 
Heartbeat CPU 0 instructions: 29000001 cycles: 163912437 heartbeat IPC: 0.105317 cumulative IPC: 0.120523 (Simulation time: 0 hr 55 min 52 sec) 
Heartbeat CPU 0 instructions: 30000001 cycles: 170676286 heartbeat IPC: 0.147845 cumulative IPC: 0.121647 (Simulation time: 0 hr 57 min 43 sec) 
Heartbeat CPU 0 instructions: 31000002 cycles: 177501710 heartbeat IPC: 0.146511 cumulative IPC: 0.122638 (Simulation time: 0 hr 59 min 30 sec) 
Heartbeat CPU 0 instructions: 32000000 cycles: 184089050 heartbeat IPC: 0.151806 cumulative IPC: 0.123719 (Simulation time: 1 hr 1 min 19 sec) 
Heartbeat CPU 0 instructions: 33000000 cycles: 190584252 heartbeat IPC: 0.15396 cumulative IPC: 0.124784 (Simulation time: 1 hr 3 min 18 sec) 
Heartbeat CPU 0 instructions: 34000000 cycles: 200243010 heartbeat IPC: 0.103533 cumulative IPC: 0.123726 (Simulation time: 1 hr 5 min 29 sec) 
Heartbeat CPU 0 instructions: 35000000 cycles: 207164560 heartbeat IPC: 0.144476 cumulative IPC: 0.124441 (Simulation time: 1 hr 7 min 21 sec) 
Heartbeat CPU 0 instructions: 36000000 cycles: 214084960 heartbeat IPC: 0.1445 cumulative IPC: 0.125109 (Simulation time: 1 hr 9 min 9 sec) 
Heartbeat CPU 0 instructions: 37000002 cycles: 223577360 heartbeat IPC: 0.105348 cumulative IPC: 0.124246 (Simulation time: 1 hr 11 min 18 sec) 
Heartbeat CPU 0 instructions: 38000000 cycles: 229877288 heartbeat IPC: 0.158732 cumulative IPC: 0.125217 (Simulation time: 1 hr 13 min 8 sec) 
Heartbeat CPU 0 instructions: 39000001 cycles: 239224888 heartbeat IPC: 0.106979 cumulative IPC: 0.124486 (Simulation time: 1 hr 15 min 24 sec) 
Heartbeat CPU 0 instructions: 40000000 cycles: 248716837 heartbeat IPC: 0.105352 cumulative IPC: 0.123736 (Simulation time: 1 hr 17 min 32 sec) 
Heartbeat CPU 0 instructions: 41000001 cycles: 255690161 heartbeat IPC: 0.143404 cumulative IPC: 0.124286 (Simulation time: 1 hr 19 min 26 sec) 
Heartbeat CPU 0 instructions: 42000003 cycles: 263206193 heartbeat IPC: 0.133049 cumulative IPC: 0.124543 (Simulation time: 1 hr 21 min 19 sec) 
Heartbeat CPU 0 instructions: 43000000 cycles: 272989432 heartbeat IPC: 0.102215 cumulative IPC: 0.123724 (Simulation time: 1 hr 23 min 35 sec) 
Heartbeat CPU 0 instructions: 44000000 cycles: 280106113 heartbeat IPC: 0.140515 cumulative IPC: 0.12416 (Simulation time: 1 hr 25 min 32 sec) 
Heartbeat CPU 0 instructions: 45000000 cycles: 287137733 heartbeat IPC: 0.142215 cumulative IPC: 0.124612 (Simulation time: 1 hr 27 min 30 sec) 
Heartbeat CPU 0 instructions: 46000002 cycles: 294105351 heartbeat IPC: 0.143521 cumulative IPC: 0.12507 (Simulation time: 1 hr 29 min 21 sec) 
Heartbeat CPU 0 instructions: 47000000 cycles: 301151748 heartbeat IPC: 0.141916 cumulative IPC: 0.125472 (Simulation time: 1 hr 31 min 13 sec) 
Heartbeat CPU 0 instructions: 48000000 cycles: 310473068 heartbeat IPC: 0.107281 cumulative IPC: 0.124915 (Simulation time: 1 hr 33 min 24 sec) 
Heartbeat CPU 0 instructions: 49000000 cycles: 316900184 heartbeat IPC: 0.155591 cumulative IPC: 0.12555 (Simulation time: 1 hr 35 min 13 sec) 
Heartbeat CPU 0 instructions: 50000000 cycles: 323478375 heartbeat IPC: 0.152017 cumulative IPC: 0.126099 (Simulation time: 1 hr 37 min 5 sec) 
Heartbeat CPU 0 instructions: 51000000 cycles: 330825102 heartbeat IPC: 0.136115 cumulative IPC: 0.126325 (Simulation time: 1 hr 38 min 58 sec) 
Heartbeat CPU 0 instructions: 52000000 cycles: 339774903 heartbeat IPC: 0.111734 cumulative IPC: 0.125934 (Simulation time: 1 hr 41 min 13 sec) 
Heartbeat CPU 0 instructions: 53000000 cycles: 346849604 heartbeat IPC: 0.141349 cumulative IPC: 0.126254 (Simulation time: 1 hr 43 min 5 sec) 
Heartbeat CPU 0 instructions: 54000000 cycles: 354720599 heartbeat IPC: 0.127049 cumulative IPC: 0.126272 (Simulation time: 1 hr 45 min 2 sec) 
Heartbeat CPU 0 instructions: 55000001 cycles: 362937732 heartbeat IPC: 0.121697 cumulative IPC: 0.126166 (Simulation time: 1 hr 46 min 58 sec) 
Heartbeat CPU 0 instructions: 56000000 cycles: 373126413 heartbeat IPC: 0.098148 cumulative IPC: 0.125388 (Simulation time: 1 hr 49 min 8 sec) 
Heartbeat CPU 0 instructions: 57000000 cycles: 379843223 heartbeat IPC: 0.14888 cumulative IPC: 0.125811 (Simulation time: 1 hr 51 min 0 sec) 
Heartbeat CPU 0 instructions: 58000001 cycles: 386809625 heartbeat IPC: 0.143546 cumulative IPC: 0.126135 (Simulation time: 1 hr 52 min 51 sec) 
Heartbeat CPU 0 instructions: 59000001 cycles: 395584128 heartbeat IPC: 0.113967 cumulative IPC: 0.125861 (Simulation time: 1 hr 54 min 52 sec) 
Heartbeat CPU 0 instructions: 60000000 cycles: 403655542 heartbeat IPC: 0.123894 cumulative IPC: 0.125821 (Simulation time: 1 hr 56 min 54 sec) 
Heartbeat CPU 0 instructions: 61000001 cycles: 410553522 heartbeat IPC: 0.14497 cumulative IPC: 0.126148 (Simulation time: 1 hr 58 min 44 sec) 
Heartbeat CPU 0 instructions: 62000001 cycles: 417462841 heartbeat IPC: 0.144732 cumulative IPC: 0.12646 (Simulation time: 2 hr 0 min 32 sec) 
Heartbeat CPU 0 instructions: 63000000 cycles: 424430417 heartbeat IPC: 0.143522 cumulative IPC: 0.126744 (Simulation time: 2 hr 2 min 22 sec) 
Heartbeat CPU 0 instructions: 64000000 cycles: 433632921 heartbeat IPC: 0.108666 cumulative IPC: 0.126355 (Simulation time: 2 hr 4 min 29 sec) 
Heartbeat CPU 0 instructions: 65000000 cycles: 440909177 heartbeat IPC: 0.137433 cumulative IPC: 0.126541 (Simulation time: 2 hr 6 min 33 sec) 
Heartbeat CPU 0 instructions: 66000001 cycles: 447837111 heartbeat IPC: 0.144343 cumulative IPC: 0.12682 (Simulation time: 2 hr 8 min 23 sec) 
Heartbeat CPU 0 instructions: 67000000 cycles: 454999991 heartbeat IPC: 0.139609 cumulative IPC: 0.127024 (Simulation time: 2 hr 10 min 19 sec) 
Heartbeat CPU 0 instructions: 68000000 cycles: 462115594 heartbeat IPC: 0.140536 cumulative IPC: 0.127235 (Simulation time: 2 hr 12 min 9 sec) 
Heartbeat CPU 0 instructions: 69000000 cycles: 474366251 heartbeat IPC: 0.0816283 cumulative IPC: 0.126041 (Simulation time: 2 hr 14 min 39 sec) 
Heartbeat CPU 0 instructions: 70000000 cycles: 481288844 heartbeat IPC: 0.144455 cumulative IPC: 0.12631 (Simulation time: 2 hr 16 min 27 sec) 
Heartbeat CPU 0 instructions: 71000002 cycles: 488401421 heartbeat IPC: 0.140596 cumulative IPC: 0.12652 (Simulation time: 2 hr 18 min 13 sec) 
Heartbeat CPU 0 instructions: 72000000 cycles: 495593993 heartbeat IPC: 0.139032 cumulative IPC: 0.126704 (Simulation time: 2 hr 19 min 58 sec) 
Heartbeat CPU 0 instructions: 73000003 cycles: 502685193 heartbeat IPC: 0.14102 cumulative IPC: 0.126909 (Simulation time: 2 hr 21 min 48 sec) 
Heartbeat CPU 0 instructions: 74000003 cycles: 511741099 heartbeat IPC: 0.110425 cumulative IPC: 0.126614 (Simulation time: 2 hr 23 min 40 sec) 
Heartbeat CPU 0 instructions: 75000000 cycles: 519195797 heartbeat IPC: 0.134143 cumulative IPC: 0.126723 (Simulation time: 2 hr 25 min 36 sec) 
Heartbeat CPU 0 instructions: 76000000 cycles: 525790059 heartbeat IPC: 0.151647 cumulative IPC: 0.127039 (Simulation time: 2 hr 27 min 16 sec) 
Heartbeat CPU 0 instructions: 77000000 cycles: 532398494 heartbeat IPC: 0.151322 cumulative IPC: 0.127344 (Simulation time: 2 hr 28 min 53 sec) 
Heartbeat CPU 0 instructions: 78000001 cycles: 538984517 heartbeat IPC: 0.151837 cumulative IPC: 0.127647 (Simulation time: 2 hr 30 min 24 sec) 
Heartbeat CPU 0 instructions: 79000000 cycles: 548292062 heartbeat IPC: 0.10744 cumulative IPC: 0.1273 (Simulation time: 2 hr 32 min 13 sec) 
Heartbeat CPU 0 instructions: 80000000 cycles: 555093800 heartbeat IPC: 0.147021 cumulative IPC: 0.127545 (Simulation time: 2 hr 33 min 37 sec) 
Heartbeat CPU 0 instructions: 81000003 cycles: 563334104 heartbeat IPC: 0.121355 cumulative IPC: 0.127453 (Simulation time: 2 hr 35 min 2 sec) 
Heartbeat CPU 0 instructions: 82000001 cycles: 571687960 heartbeat IPC: 0.119705 cumulative IPC: 0.127339 (Simulation time: 2 hr 36 min 31 sec) 
Heartbeat CPU 0 instructions: 83000002 cycles: 578480715 heartbeat IPC: 0.147216 cumulative IPC: 0.127575 (Simulation time: 2 hr 37 min 40 sec) 
Heartbeat CPU 0 instructions: 84000000 cycles: 585493069 heartbeat IPC: 0.142605 cumulative IPC: 0.127756 (Simulation time: 2 hr 38 min 50 sec) 
Heartbeat CPU 0 instructions: 85000002 cycles: 593023532 heartbeat IPC: 0.132794 cumulative IPC: 0.127821 (Simulation time: 2 hr 40 min 1 sec) 
Heartbeat CPU 0 instructions: 86000001 cycles: 602048873 heartbeat IPC: 0.110799 cumulative IPC: 0.127563 (Simulation time: 2 hr 41 min 26 sec) 
Heartbeat CPU 0 instructions: 87000000 cycles: 608485716 heartbeat IPC: 0.155356 cumulative IPC: 0.12786 (Simulation time: 2 hr 42 min 34 sec) 
Heartbeat CPU 0 instructions: 88000000 cycles: 615189743 heartbeat IPC: 0.149164 cumulative IPC: 0.128095 (Simulation time: 2 hr 43 min 39 sec) 
Heartbeat CPU 0 instructions: 89000002 cycles: 622036751 heartbeat IPC: 0.146049 cumulative IPC: 0.128295 (Simulation time: 2 hr 44 min 47 sec) 
Heartbeat CPU 0 instructions: 90000002 cycles: 628849389 heartbeat IPC: 0.146786 cumulative IPC: 0.128497 (Simulation time: 2 hr 45 min 54 sec) 
Heartbeat CPU 0 instructions: 91000001 cycles: 638430693 heartbeat IPC: 0.10437 cumulative IPC: 0.128131 (Simulation time: 2 hr 47 min 8 sec) 
Heartbeat CPU 0 instructions: 92000000 cycles: 645409123 heartbeat IPC: 0.143299 cumulative IPC: 0.128297 (Simulation time: 2 hr 48 min 4 sec) 
Heartbeat CPU 0 instructions: 93000003 cycles: 652820487 heartbeat IPC: 0.134928 cumulative IPC: 0.128373 (Simulation time: 2 hr 49 min 6 sec) 
Heartbeat CPU 0 instructions: 94000000 cycles: 660558362 heartbeat IPC: 0.129234 cumulative IPC: 0.128383 (Simulation time: 2 hr 50 min 6 sec) 
Heartbeat CPU 0 instructions: 95000000 cycles: 667440568 heartbeat IPC: 0.145302 cumulative IPC: 0.128559 (Simulation time: 2 hr 51 min 0 sec) 
Heartbeat CPU 0 instructions: 96000000 cycles: 677007239 heartbeat IPC: 0.10453 cumulative IPC: 0.128216 (Simulation time: 2 hr 52 min 4 sec) 
Heartbeat CPU 0 instructions: 97000000 cycles: 683977720 heartbeat IPC: 0.143462 cumulative IPC: 0.128373 (Simulation time: 2 hr 52 min 55 sec) 
Heartbeat CPU 0 instructions: 98000003 cycles: 691763606 heartbeat IPC: 0.128438 cumulative IPC: 0.128374 (Simulation time: 2 hr 53 min 36 sec) 
Heartbeat CPU 0 instructions: 99000001 cycles: 699913345 heartbeat IPC: 0.122703 cumulative IPC: 0.128307 (Simulation time: 2 hr 54 min 22 sec) 
Heartbeat CPU 0 instructions: 100000000 cycles: 707865759 heartbeat IPC: 0.125748 cumulative IPC: 0.128278 (Simulation time: 2 hr 55 min 3 sec) 
Heartbeat CPU 0 instructions: 101000000 cycles: 717502305 heartbeat IPC: 0.103772 cumulative IPC: 0.127946 (Simulation time: 2 hr 55 min 45 sec) 
Heartbeat CPU 0 instructions: 102000001 cycles: 724060502 heartbeat IPC: 0.152481 cumulative IPC: 0.12817 (Simulation time: 2 hr 56 min 18 sec) 
Heartbeat CPU 0 instructions: 103000000 cycles: 730788535 heartbeat IPC: 0.148632 cumulative IPC: 0.12836 (Simulation time: 2 hr 56 min 49 sec) 
Heartbeat CPU 0 instructions: 104000000 cycles: 737422176 heartbeat IPC: 0.150747 cumulative IPC: 0.128564 (Simulation time: 2 hr 57 min 21 sec) 
Heartbeat CPU 0 instructions: 105000000 cycles: 743766147 heartbeat IPC: 0.15763 cumulative IPC: 0.128814 (Simulation time: 2 hr 57 min 50 sec) 
Heartbeat CPU 0 instructions: 106000000 cycles: 753480623 heartbeat IPC: 0.102939 cumulative IPC: 0.128477 (Simulation time: 2 hr 58 min 23 sec) 
Heartbeat CPU 0 instructions: 107000002 cycles: 760667988 heartbeat IPC: 0.139133 cumulative IPC: 0.128579 (Simulation time: 2 hr 58 min 48 sec) 
Heartbeat CPU 0 instructions: 108000000 cycles: 770202803 heartbeat IPC: 0.104879 cumulative IPC: 0.128283 (Simulation time: 2 hr 59 min 15 sec) 
Heartbeat CPU 0 instructions: 109000003 cycles: 777035348 heartbeat IPC: 0.146359 cumulative IPC: 0.128443 (Simulation time: 2 hr 59 min 39 sec) 
Heartbeat CPU 0 instructions: 110000003 cycles: 783579848 heartbeat IPC: 0.1528 cumulative IPC: 0.128648 (Simulation time: 3 hr 0 min 0 sec) 
Finished CPU 0 instructions: 100000001 cycles: 777313745 cummulative IPC: 0.128648 (Simulation time: 3 hr 0 min 0 sec) 

ChampSim completed all CPUs

Region of Interest Statistics

CPU 0 cummulative IPC: 0.128648 instructions: 100000001 cycles: 777313745
LLC TOTAL     ACCESS:    6966695  HIT:    2580166  MISS:    4386529
LLC LOAD      ACCESS:    2413959  HIT:     483072  MISS:    1930887
LLC RFO       ACCESS:    1812772  HIT:     747187  MISS:    1065585
LLC PREFETCH  ACCESS:          0  HIT:          0  MISS:          0
LLC WRITEBACK ACCESS:    2739964  HIT:    1349907  MISS:    1390057
