
*** ChampSim Multicore Out-of-Order Simulator ***

Warmup Instructions: 10000000
Simulation Instructions: 100000000
Configuration: 1
Number of CPUs: 1
LLC sets: 2048
LLC ways: 16
Off-chip DRAM Channels: 1 Width: 64-bit Data Rate: 1600 MT/s

CPU 0 runs /datasets/cs240c-wi22-a00-public/data/Assignment2-gz/gcc_39B.trace.gz
config 1, num_core 1, llc_sets 2048
Heartbeat CPU 0 instructions: 1000000 cycles: 510392 heartbeat IPC: 1.95928 cumulative IPC: 1.95928 (Simulation time: 0 hr 1 min 33 sec) 
Heartbeat CPU 0 instructions: 2000002 cycles: 1020757 heartbeat IPC: 1.95939 cumulative IPC: 1.95933 (Simulation time: 0 hr 3 min 6 sec) 
Heartbeat CPU 0 instructions: 3000002 cycles: 1529819 heartbeat IPC: 1.9644 cumulative IPC: 1.96102 (Simulation time: 0 hr 4 min 34 sec) 
Heartbeat CPU 0 instructions: 4000000 cycles: 2038994 heartbeat IPC: 1.96396 cumulative IPC: 1.96175 (Simulation time: 0 hr 6 min 4 sec) 
Heartbeat CPU 0 instructions: 5000003 cycles: 2548012 heartbeat IPC: 1.96457 cumulative IPC: 1.96232 (Simulation time: 0 hr 7 min 35 sec) 
Heartbeat CPU 0 instructions: 6000000 cycles: 3058743 heartbeat IPC: 1.95797 cumulative IPC: 1.96159 (Simulation time: 0 hr 9 min 5 sec) 
Heartbeat CPU 0 instructions: 7000001 cycles: 3566998 heartbeat IPC: 1.96752 cumulative IPC: 1.96243 (Simulation time: 0 hr 10 min 38 sec) 
Heartbeat CPU 0 instructions: 8000000 cycles: 4080593 heartbeat IPC: 1.94706 cumulative IPC: 1.9605 (Simulation time: 0 hr 12 min 4 sec) 
Heartbeat CPU 0 instructions: 9000002 cycles: 4592955 heartbeat IPC: 1.95175 cumulative IPC: 1.95952 (Simulation time: 0 hr 13 min 32 sec) 
Heartbeat CPU 0 instructions: 10000000 cycles: 5103703 heartbeat IPC: 1.95791 cumulative IPC: 1.95936 (Simulation time: 0 hr 15 min 3 sec) 

Warmup complete CPU 0 instructions: 10000004 cycles: 5103704 (Simulation time: 0 hr 15 min 3 sec) 

Heartbeat CPU 0 instructions: 11000002 cycles: 6490686 heartbeat IPC: 0.720991 cumulative IPC: 0.720988 (Simulation time: 0 hr 16 min 50 sec) 
Heartbeat CPU 0 instructions: 12000000 cycles: 7878531 heartbeat IPC: 0.72054 cumulative IPC: 0.720764 (Simulation time: 0 hr 18 min 39 sec) 
Heartbeat CPU 0 instructions: 13000003 cycles: 9260544 heartbeat IPC: 0.723584 cumulative IPC: 0.721702 (Simulation time: 0 hr 20 min 27 sec) 
Heartbeat CPU 0 instructions: 14000003 cycles: 10649291 heartbeat IPC: 0.720074 cumulative IPC: 0.721294 (Simulation time: 0 hr 22 min 15 sec) 
Heartbeat CPU 0 instructions: 15000001 cycles: 12036443 heartbeat IPC: 0.7209 cumulative IPC: 0.721215 (Simulation time: 0 hr 24 min 1 sec) 
Heartbeat CPU 0 instructions: 16000000 cycles: 13425477 heartbeat IPC: 0.719924 cumulative IPC: 0.721 (Simulation time: 0 hr 25 min 46 sec) 
Heartbeat CPU 0 instructions: 17000000 cycles: 14813881 heartbeat IPC: 0.720251 cumulative IPC: 0.720893 (Simulation time: 0 hr 27 min 30 sec) 
Heartbeat CPU 0 instructions: 18000000 cycles: 16202688 heartbeat IPC: 0.720042 cumulative IPC: 0.720786 (Simulation time: 0 hr 29 min 16 sec) 
Heartbeat CPU 0 instructions: 19000001 cycles: 17583925 heartbeat IPC: 0.723989 cumulative IPC: 0.721141 (Simulation time: 0 hr 30 min 59 sec) 
Heartbeat CPU 0 instructions: 20000000 cycles: 18964491 heartbeat IPC: 0.72434 cumulative IPC: 0.721459 (Simulation time: 0 hr 32 min 46 sec) 
Heartbeat CPU 0 instructions: 21000001 cycles: 20360957 heartbeat IPC: 0.716094 cumulative IPC: 0.720968 (Simulation time: 0 hr 34 min 32 sec) 
Heartbeat CPU 0 instructions: 22000003 cycles: 21750929 heartbeat IPC: 0.71944 cumulative IPC: 0.720841 (Simulation time: 0 hr 36 min 17 sec) 
Heartbeat CPU 0 instructions: 23000003 cycles: 23134024 heartbeat IPC: 0.723016 cumulative IPC: 0.721008 (Simulation time: 0 hr 38 min 2 sec) 
Heartbeat CPU 0 instructions: 24000000 cycles: 24512020 heartbeat IPC: 0.725689 cumulative IPC: 0.72134 (Simulation time: 0 hr 39 min 48 sec) 
Heartbeat CPU 0 instructions: 25000002 cycles: 25889501 heartbeat IPC: 0.725964 cumulative IPC: 0.721646 (Simulation time: 0 hr 41 min 29 sec) 
Heartbeat CPU 0 instructions: 26000001 cycles: 27270978 heartbeat IPC: 0.723862 cumulative IPC: 0.721785 (Simulation time: 0 hr 43 min 13 sec) 
Heartbeat CPU 0 instructions: 27000000 cycles: 28648075 heartbeat IPC: 0.726165 cumulative IPC: 0.722041 (Simulation time: 0 hr 45 min 2 sec) 
Heartbeat CPU 0 instructions: 28000000 cycles: 30027939 heartbeat IPC: 0.724709 cumulative IPC: 0.722189 (Simulation time: 0 hr 46 min 43 sec) 
Heartbeat CPU 0 instructions: 29000001 cycles: 31397755 heartbeat IPC: 0.730026 cumulative IPC: 0.722597 (Simulation time: 0 hr 48 min 29 sec) 
Heartbeat CPU 0 instructions: 30000003 cycles: 32775548 heartbeat IPC: 0.7258 cumulative IPC: 0.722756 (Simulation time: 0 hr 50 min 36 sec) 
Heartbeat CPU 0 instructions: 31000003 cycles: 34165079 heartbeat IPC: 0.719667 cumulative IPC: 0.722609 (Simulation time: 0 hr 52 min 27 sec) 
Heartbeat CPU 0 instructions: 32000000 cycles: 35545431 heartbeat IPC: 0.724451 cumulative IPC: 0.722692 (Simulation time: 0 hr 54 min 12 sec) 
Heartbeat CPU 0 instructions: 33000002 cycles: 36932039 heartbeat IPC: 0.721186 cumulative IPC: 0.722627 (Simulation time: 0 hr 55 min 57 sec) 
Heartbeat CPU 0 instructions: 34000001 cycles: 38316438 heartbeat IPC: 0.722334 cumulative IPC: 0.722614 (Simulation time: 0 hr 57 min 48 sec) 
Heartbeat CPU 0 instructions: 35000001 cycles: 39698991 heartbeat IPC: 0.7233 cumulative IPC: 0.722642 (Simulation time: 0 hr 59 min 32 sec) 
Heartbeat CPU 0 instructions: 36000000 cycles: 41084206 heartbeat IPC: 0.721909 cumulative IPC: 0.722614 (Simulation time: 1 hr 1 min 11 sec) 
Heartbeat CPU 0 instructions: 37000000 cycles: 42468227 heartbeat IPC: 0.722532 cumulative IPC: 0.72261 (Simulation time: 1 hr 2 min 57 sec) 
Heartbeat CPU 0 instructions: 38000001 cycles: 43852853 heartbeat IPC: 0.722217 cumulative IPC: 0.722596 (Simulation time: 1 hr 4 min 45 sec) 
Heartbeat CPU 0 instructions: 39000000 cycles: 45233712 heartbeat IPC: 0.724186 cumulative IPC: 0.722651 (Simulation time: 1 hr 6 min 30 sec) 
Heartbeat CPU 0 instructions: 40000000 cycles: 46621289 heartbeat IPC: 0.720681 cumulative IPC: 0.722585 (Simulation time: 1 hr 8 min 14 sec) 
Heartbeat CPU 0 instructions: 41000000 cycles: 48006018 heartbeat IPC: 0.722163 cumulative IPC: 0.722572 (Simulation time: 1 hr 9 min 59 sec) 
Heartbeat CPU 0 instructions: 42000001 cycles: 49385209 heartbeat IPC: 0.725063 cumulative IPC: 0.722649 (Simulation time: 1 hr 11 min 46 sec) 
Heartbeat CPU 0 instructions: 43000002 cycles: 50771363 heartbeat IPC: 0.721421 cumulative IPC: 0.722612 (Simulation time: 1 hr 13 min 32 sec) 
Heartbeat CPU 0 instructions: 44000000 cycles: 52171683 heartbeat IPC: 0.714121 cumulative IPC: 0.722359 (Simulation time: 1 hr 15 min 19 sec) 
Heartbeat CPU 0 instructions: 45000000 cycles: 53552518 heartbeat IPC: 0.724199 cumulative IPC: 0.722412 (Simulation time: 1 hr 17 min 5 sec) 
Heartbeat CPU 0 instructions: 46000002 cycles: 54933107 heartbeat IPC: 0.72433 cumulative IPC: 0.722465 (Simulation time: 1 hr 18 min 51 sec) 
Heartbeat CPU 0 instructions: 47000000 cycles: 56321901 heartbeat IPC: 0.720048 cumulative IPC: 0.722399 (Simulation time: 1 hr 20 min 39 sec) 
Heartbeat CPU 0 instructions: 48000000 cycles: 57683505 heartbeat IPC: 0.734428 cumulative IPC: 0.722711 (Simulation time: 1 hr 22 min 30 sec) 
Heartbeat CPU 0 instructions: 49000000 cycles: 59058131 heartbeat IPC: 0.727471 cumulative IPC: 0.722832 (Simulation time: 1 hr 24 min 20 sec) 
Heartbeat CPU 0 instructions: 50000000 cycles: 60450668 heartbeat IPC: 0.718114 cumulative IPC: 0.722713 (Simulation time: 1 hr 26 min 11 sec) 
Heartbeat CPU 0 instructions: 51000000 cycles: 61830244 heartbeat IPC: 0.72486 cumulative IPC: 0.722766 (Simulation time: 1 hr 28 min 4 sec) 
Heartbeat CPU 0 instructions: 52000000 cycles: 63214224 heartbeat IPC: 0.722554 cumulative IPC: 0.722761 (Simulation time: 1 hr 29 min 55 sec) 
Heartbeat CPU 0 instructions: 53000003 cycles: 64595440 heartbeat IPC: 0.724002 cumulative IPC: 0.722789 (Simulation time: 1 hr 31 min 42 sec) 
Heartbeat CPU 0 instructions: 54000000 cycles: 65977591 heartbeat IPC: 0.723508 cumulative IPC: 0.722806 (Simulation time: 1 hr 33 min 30 sec) 
Heartbeat CPU 0 instructions: 55000002 cycles: 67362645 heartbeat IPC: 0.721995 cumulative IPC: 0.722788 (Simulation time: 1 hr 35 min 13 sec) 
Heartbeat CPU 0 instructions: 56000000 cycles: 68743871 heartbeat IPC: 0.723993 cumulative IPC: 0.722814 (Simulation time: 1 hr 36 min 58 sec) 
Heartbeat CPU 0 instructions: 57000000 cycles: 70133491 heartbeat IPC: 0.719621 cumulative IPC: 0.722746 (Simulation time: 1 hr 38 min 42 sec) 
Heartbeat CPU 0 instructions: 58000000 cycles: 71519977 heartbeat IPC: 0.721248 cumulative IPC: 0.722714 (Simulation time: 1 hr 40 min 25 sec) 
Heartbeat CPU 0 instructions: 59000000 cycles: 72908537 heartbeat IPC: 0.720171 cumulative IPC: 0.722662 (Simulation time: 1 hr 42 min 7 sec) 
Heartbeat CPU 0 instructions: 60000000 cycles: 74294038 heartbeat IPC: 0.721761 cumulative IPC: 0.722644 (Simulation time: 1 hr 43 min 55 sec) 
Heartbeat CPU 0 instructions: 61000000 cycles: 75675304 heartbeat IPC: 0.723974 cumulative IPC: 0.72267 (Simulation time: 1 hr 45 min 41 sec) 
Heartbeat CPU 0 instructions: 62000000 cycles: 77063015 heartbeat IPC: 0.720611 cumulative IPC: 0.722631 (Simulation time: 1 hr 47 min 26 sec) 
Heartbeat CPU 0 instructions: 63000001 cycles: 78450237 heartbeat IPC: 0.720866 cumulative IPC: 0.722597 (Simulation time: 1 hr 49 min 12 sec) 
Heartbeat CPU 0 instructions: 64000000 cycles: 79842838 heartbeat IPC: 0.71808 cumulative IPC: 0.722513 (Simulation time: 1 hr 50 min 58 sec) 
Heartbeat CPU 0 instructions: 65000000 cycles: 81215547 heartbeat IPC: 0.728487 cumulative IPC: 0.722621 (Simulation time: 1 hr 52 min 43 sec) 
Heartbeat CPU 0 instructions: 66000001 cycles: 82602871 heartbeat IPC: 0.720813 cumulative IPC: 0.722588 (Simulation time: 1 hr 54 min 31 sec) 
Heartbeat CPU 0 instructions: 67000001 cycles: 83979875 heartbeat IPC: 0.726214 cumulative IPC: 0.722652 (Simulation time: 1 hr 56 min 23 sec) 
Heartbeat CPU 0 instructions: 68000000 cycles: 85352614 heartbeat IPC: 0.72847 cumulative IPC: 0.722751 (Simulation time: 1 hr 58 min 8 sec) 
Heartbeat CPU 0 instructions: 69000000 cycles: 86740200 heartbeat IPC: 0.720676 cumulative IPC: 0.722716 (Simulation time: 1 hr 59 min 57 sec) 
Heartbeat CPU 0 instructions: 70000002 cycles: 88114891 heartbeat IPC: 0.727438 cumulative IPC: 0.722794 (Simulation time: 2 hr 1 min 40 sec) 
Heartbeat CPU 0 instructions: 71000000 cycles: 89495475 heartbeat IPC: 0.72433 cumulative IPC: 0.722819 (Simulation time: 2 hr 3 min 25 sec) 
Heartbeat CPU 0 instructions: 72000000 cycles: 90865261 heartbeat IPC: 0.730041 cumulative IPC: 0.722935 (Simulation time: 2 hr 5 min 13 sec) 
Heartbeat CPU 0 instructions: 73000000 cycles: 92235268 heartbeat IPC: 0.729923 cumulative IPC: 0.723044 (Simulation time: 2 hr 7 min 0 sec) 
Heartbeat CPU 0 instructions: 74000000 cycles: 93617928 heartbeat IPC: 0.723244 cumulative IPC: 0.723048 (Simulation time: 2 hr 8 min 47 sec) 
Heartbeat CPU 0 instructions: 75000001 cycles: 94991833 heartbeat IPC: 0.727853 cumulative IPC: 0.723121 (Simulation time: 2 hr 10 min 35 sec) 
Heartbeat CPU 0 instructions: 76000000 cycles: 96384235 heartbeat IPC: 0.718183 cumulative IPC: 0.723046 (Simulation time: 2 hr 12 min 19 sec) 
Heartbeat CPU 0 instructions: 77000003 cycles: 97758054 heartbeat IPC: 0.7279 cumulative IPC: 0.723118 (Simulation time: 2 hr 14 min 3 sec) 
Heartbeat CPU 0 instructions: 78000000 cycles: 99140626 heartbeat IPC: 0.723287 cumulative IPC: 0.72312 (Simulation time: 2 hr 15 min 47 sec) 
Heartbeat CPU 0 instructions: 79000002 cycles: 100522021 heartbeat IPC: 0.723907 cumulative IPC: 0.723132 (Simulation time: 2 hr 17 min 34 sec) 
Heartbeat CPU 0 instructions: 80000000 cycles: 101910201 heartbeat IPC: 0.720366 cumulative IPC: 0.723092 (Simulation time: 2 hr 19 min 18 sec) 
Heartbeat CPU 0 instructions: 81000000 cycles: 103304043 heartbeat IPC: 0.717441 cumulative IPC: 0.723012 (Simulation time: 2 hr 21 min 2 sec) 
Heartbeat CPU 0 instructions: 82000000 cycles: 104689679 heartbeat IPC: 0.72169 cumulative IPC: 0.722993 (Simulation time: 2 hr 22 min 46 sec) 
Heartbeat CPU 0 instructions: 83000000 cycles: 106077517 heartbeat IPC: 0.720545 cumulative IPC: 0.72296 (Simulation time: 2 hr 24 min 31 sec) 
Heartbeat CPU 0 instructions: 84000000 cycles: 107462618 heartbeat IPC: 0.721969 cumulative IPC: 0.722946 (Simulation time: 2 hr 26 min 7 sec) 
Heartbeat CPU 0 instructions: 85000000 cycles: 108841481 heartbeat IPC: 0.725235 cumulative IPC: 0.722977 (Simulation time: 2 hr 27 min 43 sec) 
Heartbeat CPU 0 instructions: 86000001 cycles: 110227653 heartbeat IPC: 0.721412 cumulative IPC: 0.722956 (Simulation time: 2 hr 29 min 10 sec) 
Heartbeat CPU 0 instructions: 87000001 cycles: 111611467 heartbeat IPC: 0.72264 cumulative IPC: 0.722952 (Simulation time: 2 hr 30 min 31 sec) 
Heartbeat CPU 0 instructions: 88000000 cycles: 112999740 heartbeat IPC: 0.720319 cumulative IPC: 0.722918 (Simulation time: 2 hr 31 min 58 sec) 
Heartbeat CPU 0 instructions: 89000003 cycles: 114384232 heartbeat IPC: 0.722289 cumulative IPC: 0.72291 (Simulation time: 2 hr 33 min 19 sec) 
Heartbeat CPU 0 instructions: 90000000 cycles: 115765491 heartbeat IPC: 0.723975 cumulative IPC: 0.722923 (Simulation time: 2 hr 34 min 37 sec) 
Heartbeat CPU 0 instructions: 91000001 cycles: 117156235 heartbeat IPC: 0.71904 cumulative IPC: 0.722875 (Simulation time: 2 hr 35 min 53 sec) 
Heartbeat CPU 0 instructions: 92000000 cycles: 118542919 heartbeat IPC: 0.721144 cumulative IPC: 0.722854 (Simulation time: 2 hr 37 min 1 sec) 
Heartbeat CPU 0 instructions: 93000000 cycles: 119925970 heartbeat IPC: 0.723039 cumulative IPC: 0.722856 (Simulation time: 2 hr 38 min 9 sec) 
Heartbeat CPU 0 instructions: 94000002 cycles: 121304557 heartbeat IPC: 0.725382 cumulative IPC: 0.722886 (Simulation time: 2 hr 39 min 17 sec) 
Heartbeat CPU 0 instructions: 95000001 cycles: 122688213 heartbeat IPC: 0.722722 cumulative IPC: 0.722884 (Simulation time: 2 hr 40 min 25 sec) 
Heartbeat CPU 0 instructions: 96000000 cycles: 124067263 heartbeat IPC: 0.725136 cumulative IPC: 0.72291 (Simulation time: 2 hr 41 min 29 sec) 
Heartbeat CPU 0 instructions: 97000000 cycles: 125443790 heartbeat IPC: 0.726466 cumulative IPC: 0.722951 (Simulation time: 2 hr 42 min 32 sec) 
Heartbeat CPU 0 instructions: 98000003 cycles: 126819011 heartbeat IPC: 0.727158 cumulative IPC: 0.722999 (Simulation time: 2 hr 43 min 38 sec) 
Heartbeat CPU 0 instructions: 99000000 cycles: 128196667 heartbeat IPC: 0.725868 cumulative IPC: 0.723031 (Simulation time: 2 hr 44 min 40 sec) 
Heartbeat CPU 0 instructions: 100000000 cycles: 129564266 heartbeat IPC: 0.731209 cumulative IPC: 0.723121 (Simulation time: 2 hr 45 min 42 sec) 
Heartbeat CPU 0 instructions: 101000000 cycles: 130934508 heartbeat IPC: 0.729798 cumulative IPC: 0.723193 (Simulation time: 2 hr 46 min 47 sec) 
Heartbeat CPU 0 instructions: 102000002 cycles: 132320342 heartbeat IPC: 0.721589 cumulative IPC: 0.723176 (Simulation time: 2 hr 47 min 48 sec) 
Heartbeat CPU 0 instructions: 103000003 cycles: 133696654 heartbeat IPC: 0.72658 cumulative IPC: 0.723212 (Simulation time: 2 hr 48 min 49 sec) 
Heartbeat CPU 0 instructions: 104000000 cycles: 135077030 heartbeat IPC: 0.724438 cumulative IPC: 0.723225 (Simulation time: 2 hr 49 min 46 sec) 
Heartbeat CPU 0 instructions: 105000000 cycles: 136450157 heartbeat IPC: 0.728265 cumulative IPC: 0.723278 (Simulation time: 2 hr 50 min 35 sec) 
Heartbeat CPU 0 instructions: 106000001 cycles: 137835396 heartbeat IPC: 0.721898 cumulative IPC: 0.723264 (Simulation time: 2 hr 51 min 22 sec) 
Heartbeat CPU 0 instructions: 107000000 cycles: 139223703 heartbeat IPC: 0.720301 cumulative IPC: 0.723233 (Simulation time: 2 hr 52 min 11 sec) 
Heartbeat CPU 0 instructions: 108000000 cycles: 140610070 heartbeat IPC: 0.72131 cumulative IPC: 0.723213 (Simulation time: 2 hr 53 min 3 sec) 
Heartbeat CPU 0 instructions: 109000003 cycles: 142013765 heartbeat IPC: 0.712408 cumulative IPC: 0.723102 (Simulation time: 2 hr 53 min 53 sec) 
Heartbeat CPU 0 instructions: 110000001 cycles: 143401118 heartbeat IPC: 0.720796 cumulative IPC: 0.723079 (Simulation time: 2 hr 54 min 39 sec) 
Finished CPU 0 instructions: 100000001 cycles: 138297415 cummulative IPC: 0.723079 (Simulation time: 2 hr 54 min 39 sec) 

ChampSim completed all CPUs

Region of Interest Statistics

CPU 0 cummulative IPC: 0.723079 instructions: 100000001 cycles: 138297415
LLC TOTAL     ACCESS:      32512  HIT:        330  MISS:      32182
LLC LOAD      ACCESS:      21583  HIT:        219  MISS:      21364
LLC RFO       ACCESS:       3395  HIT:          1  MISS:       3394
LLC PREFETCH  ACCESS:          0  HIT:          0  MISS:          0
LLC WRITEBACK ACCESS:       7534  HIT:        110  MISS:       7424
