
*** ChampSim Multicore Out-of-Order Simulator ***

Warmup Instructions: 10000000
Simulation Instructions: 100000000
Configuration: 1
Number of CPUs: 1
LLC sets: 2048
LLC ways: 16
Off-chip DRAM Channels: 1 Width: 64-bit Data Rate: 1600 MT/s

CPU 0 runs /datasets/cs240c-wi22-a00-public/data/Assignment2-gz/bzip2_281B.trace.gz
config 1, num_core 1, llc_sets 2048
Heartbeat CPU 0 instructions: 1000000 cycles: 445720 heartbeat IPC: 2.24356 cumulative IPC: 2.24356 (Simulation time: 0 hr 1 min 19 sec) 
Heartbeat CPU 0 instructions: 2000003 cycles: 899695 heartbeat IPC: 2.20277 cumulative IPC: 2.22298 (Simulation time: 0 hr 2 min 43 sec) 
Heartbeat CPU 0 instructions: 3000002 cycles: 1314621 heartbeat IPC: 2.41007 cumulative IPC: 2.28203 (Simulation time: 0 hr 4 min 8 sec) 
Heartbeat CPU 0 instructions: 4000000 cycles: 1753171 heartbeat IPC: 2.28024 cumulative IPC: 2.28158 (Simulation time: 0 hr 5 min 29 sec) 
Heartbeat CPU 0 instructions: 5000002 cycles: 2174947 heartbeat IPC: 2.37093 cumulative IPC: 2.29891 (Simulation time: 0 hr 6 min 50 sec) 
Heartbeat CPU 0 instructions: 6000003 cycles: 2666745 heartbeat IPC: 2.03336 cumulative IPC: 2.24994 (Simulation time: 0 hr 8 min 16 sec) 
Heartbeat CPU 0 instructions: 7000001 cycles: 3194501 heartbeat IPC: 1.89481 cumulative IPC: 2.19127 (Simulation time: 0 hr 9 min 51 sec) 
Heartbeat CPU 0 instructions: 8000000 cycles: 3727485 heartbeat IPC: 1.87623 cumulative IPC: 2.14622 (Simulation time: 0 hr 11 min 27 sec) 
Heartbeat CPU 0 instructions: 9000003 cycles: 4234433 heartbeat IPC: 1.97259 cumulative IPC: 2.12543 (Simulation time: 0 hr 12 min 55 sec) 
Heartbeat CPU 0 instructions: 10000002 cycles: 4687128 heartbeat IPC: 2.20899 cumulative IPC: 2.1335 (Simulation time: 0 hr 14 min 20 sec) 

Warmup complete CPU 0 instructions: 10000002 cycles: 4687128 (Simulation time: 0 hr 14 min 20 sec) 

Heartbeat CPU 0 instructions: 11000000 cycles: 6289226 heartbeat IPC: 0.62418 cumulative IPC: 0.62418 (Simulation time: 0 hr 15 min 35 sec) 
Heartbeat CPU 0 instructions: 12000000 cycles: 7748517 heartbeat IPC: 0.685264 cumulative IPC: 0.653298 (Simulation time: 0 hr 16 min 59 sec) 
Heartbeat CPU 0 instructions: 13000001 cycles: 9305829 heartbeat IPC: 0.642133 cumulative IPC: 0.649533 (Simulation time: 0 hr 18 min 29 sec) 
Heartbeat CPU 0 instructions: 14000000 cycles: 10756558 heartbeat IPC: 0.689308 cumulative IPC: 0.65904 (Simulation time: 0 hr 19 min 45 sec) 
Heartbeat CPU 0 instructions: 15000000 cycles: 12373603 heartbeat IPC: 0.618412 cumulative IPC: 0.650493 (Simulation time: 0 hr 21 min 8 sec) 
Heartbeat CPU 0 instructions: 16000000 cycles: 14278264 heartbeat IPC: 0.525028 cumulative IPC: 0.625577 (Simulation time: 0 hr 22 min 43 sec) 
Heartbeat CPU 0 instructions: 17000003 cycles: 15958678 heartbeat IPC: 0.595093 cumulative IPC: 0.621033 (Simulation time: 0 hr 24 min 5 sec) 
Heartbeat CPU 0 instructions: 18000002 cycles: 17670130 heartbeat IPC: 0.584299 cumulative IPC: 0.61619 (Simulation time: 0 hr 25 min 22 sec) 
Heartbeat CPU 0 instructions: 19000001 cycles: 19107255 heartbeat IPC: 0.695833 cumulative IPC: 0.624128 (Simulation time: 0 hr 26 min 36 sec) 
Heartbeat CPU 0 instructions: 20000000 cycles: 20922651 heartbeat IPC: 0.550843 cumulative IPC: 0.615933 (Simulation time: 0 hr 28 min 1 sec) 
Heartbeat CPU 0 instructions: 21000001 cycles: 22699959 heartbeat IPC: 0.562649 cumulative IPC: 0.610676 (Simulation time: 0 hr 29 min 30 sec) 
Heartbeat CPU 0 instructions: 22000000 cycles: 24924011 heartbeat IPC: 0.449629 cumulative IPC: 0.592977 (Simulation time: 0 hr 31 min 6 sec) 
Heartbeat CPU 0 instructions: 23000001 cycles: 26514402 heartbeat IPC: 0.628777 cumulative IPC: 0.595585 (Simulation time: 0 hr 32 min 17 sec) 
Heartbeat CPU 0 instructions: 24000000 cycles: 28826111 heartbeat IPC: 0.43258 cumulative IPC: 0.579975 (Simulation time: 0 hr 33 min 56 sec) 
Heartbeat CPU 0 instructions: 25000002 cycles: 31088676 heartbeat IPC: 0.441977 cumulative IPC: 0.568148 (Simulation time: 0 hr 35 min 46 sec) 
Heartbeat CPU 0 instructions: 26000003 cycles: 32676438 heartbeat IPC: 0.629818 cumulative IPC: 0.571647 (Simulation time: 0 hr 37 min 27 sec) 
Heartbeat CPU 0 instructions: 27000002 cycles: 34591037 heartbeat IPC: 0.522302 cumulative IPC: 0.568488 (Simulation time: 0 hr 39 min 6 sec) 
Heartbeat CPU 0 instructions: 28000000 cycles: 35835074 heartbeat IPC: 0.803833 cumulative IPC: 0.577887 (Simulation time: 0 hr 40 min 34 sec) 
Heartbeat CPU 0 instructions: 29000001 cycles: 37008428 heartbeat IPC: 0.852259 cumulative IPC: 0.587848 (Simulation time: 0 hr 41 min 55 sec) 
Heartbeat CPU 0 instructions: 30000000 cycles: 38615005 heartbeat IPC: 0.622441 cumulative IPC: 0.589486 (Simulation time: 0 hr 43 min 18 sec) 
Heartbeat CPU 0 instructions: 31000003 cycles: 39887801 heartbeat IPC: 0.785674 cumulative IPC: 0.59658 (Simulation time: 0 hr 44 min 36 sec) 
Heartbeat CPU 0 instructions: 32000000 cycles: 40903383 heartbeat IPC: 0.984654 cumulative IPC: 0.607462 (Simulation time: 0 hr 45 min 55 sec) 
Heartbeat CPU 0 instructions: 33000002 cycles: 41932764 heartbeat IPC: 0.97146 cumulative IPC: 0.617522 (Simulation time: 0 hr 47 min 15 sec) 
Heartbeat CPU 0 instructions: 34000001 cycles: 42905566 heartbeat IPC: 1.02796 cumulative IPC: 0.627969 (Simulation time: 0 hr 48 min 25 sec) 
Heartbeat CPU 0 instructions: 35000000 cycles: 43781403 heartbeat IPC: 1.14176 cumulative IPC: 0.63948 (Simulation time: 0 hr 49 min 36 sec) 
Heartbeat CPU 0 instructions: 36000000 cycles: 44650071 heartbeat IPC: 1.15119 cumulative IPC: 0.650603 (Simulation time: 0 hr 50 min 45 sec) 
Heartbeat CPU 0 instructions: 37000000 cycles: 45512976 heartbeat IPC: 1.15888 cumulative IPC: 0.661346 (Simulation time: 0 hr 51 min 51 sec) 
Heartbeat CPU 0 instructions: 38000000 cycles: 46401191 heartbeat IPC: 1.12585 cumulative IPC: 0.671236 (Simulation time: 0 hr 52 min 56 sec) 
Heartbeat CPU 0 instructions: 39000001 cycles: 47408052 heartbeat IPC: 0.993187 cumulative IPC: 0.678824 (Simulation time: 0 hr 54 min 7 sec) 
Heartbeat CPU 0 instructions: 40000000 cycles: 48490788 heartbeat IPC: 0.923585 cumulative IPC: 0.684874 (Simulation time: 0 hr 55 min 18 sec) 
Heartbeat CPU 0 instructions: 41000002 cycles: 49550021 heartbeat IPC: 0.944081 cumulative IPC: 0.690994 (Simulation time: 0 hr 56 min 29 sec) 
Heartbeat CPU 0 instructions: 42000001 cycles: 50596348 heartbeat IPC: 0.955723 cumulative IPC: 0.697028 (Simulation time: 0 hr 57 min 46 sec) 
Heartbeat CPU 0 instructions: 43000001 cycles: 51622607 heartbeat IPC: 0.974413 cumulative IPC: 0.703093 (Simulation time: 0 hr 58 min 56 sec) 
Heartbeat CPU 0 instructions: 44000000 cycles: 52686666 heartbeat IPC: 0.939797 cumulative IPC: 0.70834 (Simulation time: 1 hr 0 min 6 sec) 
Heartbeat CPU 0 instructions: 45000000 cycles: 53679620 heartbeat IPC: 1.0071 cumulative IPC: 0.714395 (Simulation time: 1 hr 1 min 16 sec) 
Heartbeat CPU 0 instructions: 46000000 cycles: 54692395 heartbeat IPC: 0.987386 cumulative IPC: 0.719924 (Simulation time: 1 hr 2 min 31 sec) 
Heartbeat CPU 0 instructions: 47000000 cycles: 55673119 heartbeat IPC: 1.01965 cumulative IPC: 0.725689 (Simulation time: 1 hr 3 min 43 sec) 
Heartbeat CPU 0 instructions: 48000000 cycles: 56666626 heartbeat IPC: 1.00654 cumulative IPC: 0.731057 (Simulation time: 1 hr 4 min 54 sec) 
Heartbeat CPU 0 instructions: 49000001 cycles: 57726075 heartbeat IPC: 0.943888 cumulative IPC: 0.735309 (Simulation time: 1 hr 6 min 8 sec) 
Heartbeat CPU 0 instructions: 50000003 cycles: 58809669 heartbeat IPC: 0.922857 cumulative IPC: 0.739064 (Simulation time: 1 hr 7 min 23 sec) 
Heartbeat CPU 0 instructions: 51000002 cycles: 59872289 heartbeat IPC: 0.941069 cumulative IPC: 0.742953 (Simulation time: 1 hr 8 min 35 sec) 
Heartbeat CPU 0 instructions: 52000000 cycles: 60961203 heartbeat IPC: 0.918344 cumulative IPC: 0.746347 (Simulation time: 1 hr 9 min 53 sec) 
Heartbeat CPU 0 instructions: 53000000 cycles: 62045882 heartbeat IPC: 0.921932 cumulative IPC: 0.749668 (Simulation time: 1 hr 11 min 7 sec) 
Heartbeat CPU 0 instructions: 54000003 cycles: 63152968 heartbeat IPC: 0.903275 cumulative IPC: 0.752576 (Simulation time: 1 hr 12 min 22 sec) 
Heartbeat CPU 0 instructions: 55000000 cycles: 64240321 heartbeat IPC: 0.919662 cumulative IPC: 0.755627 (Simulation time: 1 hr 13 min 37 sec) 
Heartbeat CPU 0 instructions: 56000000 cycles: 65325545 heartbeat IPC: 0.921469 cumulative IPC: 0.758595 (Simulation time: 1 hr 14 min 50 sec) 
Heartbeat CPU 0 instructions: 57000002 cycles: 66393708 heartbeat IPC: 0.936189 cumulative IPC: 0.761669 (Simulation time: 1 hr 16 min 4 sec) 
Heartbeat CPU 0 instructions: 58000003 cycles: 67481702 heartbeat IPC: 0.919124 cumulative IPC: 0.764397 (Simulation time: 1 hr 17 min 17 sec) 
Heartbeat CPU 0 instructions: 59000003 cycles: 68579157 heartbeat IPC: 0.911199 cumulative IPC: 0.766919 (Simulation time: 1 hr 18 min 33 sec) 
Heartbeat CPU 0 instructions: 60000000 cycles: 69798658 heartbeat IPC: 0.820005 cumulative IPC: 0.767913 (Simulation time: 1 hr 20 min 2 sec) 
Heartbeat CPU 0 instructions: 61000000 cycles: 71008627 heartbeat IPC: 0.826467 cumulative IPC: 0.768981 (Simulation time: 1 hr 21 min 38 sec) 
Heartbeat CPU 0 instructions: 62000003 cycles: 72234798 heartbeat IPC: 0.815549 cumulative IPC: 0.769827 (Simulation time: 1 hr 23 min 11 sec) 
Heartbeat CPU 0 instructions: 63000001 cycles: 73469236 heartbeat IPC: 0.810084 cumulative IPC: 0.770549 (Simulation time: 1 hr 24 min 39 sec) 
Heartbeat CPU 0 instructions: 64000000 cycles: 74798691 heartbeat IPC: 0.752187 cumulative IPC: 0.770201 (Simulation time: 1 hr 26 min 2 sec) 
Heartbeat CPU 0 instructions: 65000001 cycles: 76011694 heartbeat IPC: 0.824401 cumulative IPC: 0.771123 (Simulation time: 1 hr 27 min 29 sec) 
Heartbeat CPU 0 instructions: 66000003 cycles: 77216167 heartbeat IPC: 0.83024 cumulative IPC: 0.772105 (Simulation time: 1 hr 28 min 55 sec) 
Heartbeat CPU 0 instructions: 67000000 cycles: 78430170 heartbeat IPC: 0.823719 cumulative IPC: 0.772954 (Simulation time: 1 hr 30 min 20 sec) 
Heartbeat CPU 0 instructions: 68000000 cycles: 79747597 heartbeat IPC: 0.759055 cumulative IPC: 0.77271 (Simulation time: 1 hr 31 min 44 sec) 
Heartbeat CPU 0 instructions: 69000000 cycles: 80947572 heartbeat IPC: 0.833351 cumulative IPC: 0.773664 (Simulation time: 1 hr 33 min 16 sec) 
Heartbeat CPU 0 instructions: 70000002 cycles: 82151113 heartbeat IPC: 0.830883 cumulative IPC: 0.774553 (Simulation time: 1 hr 34 min 49 sec) 
Heartbeat CPU 0 instructions: 71000003 cycles: 83358163 heartbeat IPC: 0.828467 cumulative IPC: 0.775381 (Simulation time: 1 hr 36 min 17 sec) 
Heartbeat CPU 0 instructions: 72000000 cycles: 84566191 heartbeat IPC: 0.827793 cumulative IPC: 0.776173 (Simulation time: 1 hr 37 min 46 sec) 
Heartbeat CPU 0 instructions: 73000002 cycles: 85869849 heartbeat IPC: 0.767074 cumulative IPC: 0.776027 (Simulation time: 1 hr 39 min 11 sec) 
Heartbeat CPU 0 instructions: 74000000 cycles: 87069534 heartbeat IPC: 0.83355 cumulative IPC: 0.776865 (Simulation time: 1 hr 40 min 45 sec) 
Heartbeat CPU 0 instructions: 75000001 cycles: 88271177 heartbeat IPC: 0.832195 cumulative IPC: 0.77766 (Simulation time: 1 hr 42 min 14 sec) 
Heartbeat CPU 0 instructions: 76000000 cycles: 89480568 heartbeat IPC: 0.826862 cumulative IPC: 0.778362 (Simulation time: 1 hr 43 min 47 sec) 
Heartbeat CPU 0 instructions: 77000001 cycles: 90737947 heartbeat IPC: 0.795306 cumulative IPC: 0.77861 (Simulation time: 1 hr 45 min 16 sec) 
Heartbeat CPU 0 instructions: 78000003 cycles: 91906576 heartbeat IPC: 0.855705 cumulative IPC: 0.779643 (Simulation time: 1 hr 46 min 22 sec) 
Heartbeat CPU 0 instructions: 79000000 cycles: 92827961 heartbeat IPC: 1.08532 cumulative IPC: 0.782838 (Simulation time: 1 hr 47 min 32 sec) 
Heartbeat CPU 0 instructions: 80000000 cycles: 93734590 heartbeat IPC: 1.10299 cumulative IPC: 0.786098 (Simulation time: 1 hr 48 min 41 sec) 
Heartbeat CPU 0 instructions: 81000000 cycles: 94583275 heartbeat IPC: 1.17829 cumulative IPC: 0.7898 (Simulation time: 1 hr 49 min 56 sec) 
Heartbeat CPU 0 instructions: 82000001 cycles: 95478203 heartbeat IPC: 1.11741 cumulative IPC: 0.793029 (Simulation time: 1 hr 51 min 7 sec) 
Heartbeat CPU 0 instructions: 83000000 cycles: 96405453 heartbeat IPC: 1.07846 cumulative IPC: 0.795915 (Simulation time: 1 hr 52 min 13 sec) 
Heartbeat CPU 0 instructions: 84000000 cycles: 97325486 heartbeat IPC: 1.08692 cumulative IPC: 0.798805 (Simulation time: 1 hr 53 min 21 sec) 
Heartbeat CPU 0 instructions: 85000002 cycles: 98264119 heartbeat IPC: 1.06538 cumulative IPC: 0.801479 (Simulation time: 1 hr 54 min 45 sec) 
Heartbeat CPU 0 instructions: 86000002 cycles: 99210170 heartbeat IPC: 1.05703 cumulative IPC: 0.804037 (Simulation time: 1 hr 56 min 15 sec) 
Heartbeat CPU 0 instructions: 87000002 cycles: 100166016 heartbeat IPC: 1.04619 cumulative IPC: 0.806461 (Simulation time: 1 hr 57 min 49 sec) 
Heartbeat CPU 0 instructions: 88000000 cycles: 101258772 heartbeat IPC: 0.915116 cumulative IPC: 0.807691 (Simulation time: 1 hr 59 min 20 sec) 
Heartbeat CPU 0 instructions: 89000002 cycles: 102405438 heartbeat IPC: 0.872095 cumulative IPC: 0.808446 (Simulation time: 2 hr 0 min 51 sec) 
Heartbeat CPU 0 instructions: 90000001 cycles: 103545607 heartbeat IPC: 0.877062 cumulative IPC: 0.809238 (Simulation time: 2 hr 2 min 23 sec) 
Heartbeat CPU 0 instructions: 91000001 cycles: 104700861 heartbeat IPC: 0.86561 cumulative IPC: 0.809889 (Simulation time: 2 hr 3 min 59 sec) 
Heartbeat CPU 0 instructions: 92000000 cycles: 105835195 heartbeat IPC: 0.881574 cumulative IPC: 0.810693 (Simulation time: 2 hr 5 min 33 sec) 
Heartbeat CPU 0 instructions: 93000001 cycles: 106968708 heartbeat IPC: 0.882214 cumulative IPC: 0.811485 (Simulation time: 2 hr 7 min 6 sec) 
Heartbeat CPU 0 instructions: 94000001 cycles: 108094761 heartbeat IPC: 0.888058 cumulative IPC: 0.812319 (Simulation time: 2 hr 8 min 43 sec) 
Heartbeat CPU 0 instructions: 95000000 cycles: 109224889 heartbeat IPC: 0.884855 cumulative IPC: 0.813103 (Simulation time: 2 hr 10 min 15 sec) 
Heartbeat CPU 0 instructions: 96000000 cycles: 110351572 heartbeat IPC: 0.887561 cumulative IPC: 0.813897 (Simulation time: 2 hr 11 min 46 sec) 
Heartbeat CPU 0 instructions: 97000002 cycles: 111481540 heartbeat IPC: 0.884983 cumulative IPC: 0.814649 (Simulation time: 2 hr 13 min 18 sec) 
Heartbeat CPU 0 instructions: 98000002 cycles: 112609962 heartbeat IPC: 0.886193 cumulative IPC: 0.815397 (Simulation time: 2 hr 14 min 47 sec) 
Heartbeat CPU 0 instructions: 99000000 cycles: 113737267 heartbeat IPC: 0.88707 cumulative IPC: 0.816138 (Simulation time: 2 hr 16 min 16 sec) 
Heartbeat CPU 0 instructions: 100000000 cycles: 114868448 heartbeat IPC: 0.884032 cumulative IPC: 0.816835 (Simulation time: 2 hr 17 min 44 sec) 
Heartbeat CPU 0 instructions: 101000000 cycles: 116000899 heartbeat IPC: 0.88304 cumulative IPC: 0.817509 (Simulation time: 2 hr 19 min 14 sec) 
Heartbeat CPU 0 instructions: 102000000 cycles: 117135968 heartbeat IPC: 0.881004 cumulative IPC: 0.81815 (Simulation time: 2 hr 20 min 45 sec) 
Heartbeat CPU 0 instructions: 103000002 cycles: 118270017 heartbeat IPC: 0.881798 cumulative IPC: 0.818785 (Simulation time: 2 hr 22 min 15 sec) 
Heartbeat CPU 0 instructions: 104000000 cycles: 119404621 heartbeat IPC: 0.881363 cumulative IPC: 0.819404 (Simulation time: 2 hr 23 min 41 sec) 
Heartbeat CPU 0 instructions: 105000003 cycles: 120544024 heartbeat IPC: 0.877655 cumulative IPC: 0.819977 (Simulation time: 2 hr 25 min 4 sec) 
Heartbeat CPU 0 instructions: 106000002 cycles: 121686305 heartbeat IPC: 0.87544 cumulative IPC: 0.820519 (Simulation time: 2 hr 26 min 23 sec) 
Heartbeat CPU 0 instructions: 107000001 cycles: 122815312 heartbeat IPC: 0.885733 cumulative IPC: 0.821142 (Simulation time: 2 hr 27 min 49 sec) 
Heartbeat CPU 0 instructions: 108000000 cycles: 123955378 heartbeat IPC: 0.877141 cumulative IPC: 0.821677 (Simulation time: 2 hr 29 min 5 sec) 
Heartbeat CPU 0 instructions: 109000001 cycles: 125095713 heartbeat IPC: 0.876936 cumulative IPC: 0.8222 (Simulation time: 2 hr 30 min 18 sec) 
Heartbeat CPU 0 instructions: 110000002 cycles: 126249165 heartbeat IPC: 0.866964 cumulative IPC: 0.822625 (Simulation time: 2 hr 31 min 32 sec) 
Finished CPU 0 instructions: 100000000 cycles: 121562037 cummulative IPC: 0.822625 (Simulation time: 2 hr 31 min 32 sec) 

ChampSim completed all CPUs

Region of Interest Statistics

CPU 0 cummulative IPC: 0.822625 instructions: 100000000 cycles: 121562037
LLC TOTAL     ACCESS:    1432039  HIT:    1181003  MISS:     251036
LLC LOAD      ACCESS:    1067506  HIT:     922636  MISS:     144870
LLC RFO       ACCESS:     180718  HIT:     103806  MISS:      76912
LLC PREFETCH  ACCESS:          0  HIT:          0  MISS:          0
LLC WRITEBACK ACCESS:     183815  HIT:     154561  MISS:      29254
