
*** ChampSim Multicore Out-of-Order Simulator ***

Warmup Instructions: 10000000
Simulation Instructions: 100000000
Configuration: 1
Number of CPUs: 1
LLC sets: 2048
LLC ways: 16
Off-chip DRAM Channels: 1 Width: 64-bit Data Rate: 1600 MT/s

CPU 0 runs /datasets/cs240c-wi22-a00-public/data/Assignment2-gz/sphinx3_883B.trace.gz
config 1, num_core 1, llc_sets 2048
Heartbeat CPU 0 instructions: 1000003 cycles: 413161 heartbeat IPC: 2.42037 cumulative IPC: 2.42037 (Simulation time: 0 hr 1 min 26 sec) 
Heartbeat CPU 0 instructions: 2000000 cycles: 821885 heartbeat IPC: 2.44663 cumulative IPC: 2.43343 (Simulation time: 0 hr 2 min 48 sec) 
Heartbeat CPU 0 instructions: 3000003 cycles: 1294971 heartbeat IPC: 2.11379 cumulative IPC: 2.31666 (Simulation time: 0 hr 4 min 17 sec) 
Heartbeat CPU 0 instructions: 4000000 cycles: 1633345 heartbeat IPC: 2.9553 cumulative IPC: 2.44896 (Simulation time: 0 hr 5 min 40 sec) 
Heartbeat CPU 0 instructions: 5000000 cycles: 1987163 heartbeat IPC: 2.82631 cumulative IPC: 2.51615 (Simulation time: 0 hr 7 min 5 sec) 
Heartbeat CPU 0 instructions: 6000000 cycles: 2400185 heartbeat IPC: 2.42118 cumulative IPC: 2.49981 (Simulation time: 0 hr 8 min 35 sec) 
Heartbeat CPU 0 instructions: 7000002 cycles: 2808115 heartbeat IPC: 2.45141 cumulative IPC: 2.49278 (Simulation time: 0 hr 10 min 12 sec) 
Heartbeat CPU 0 instructions: 8000000 cycles: 3282208 heartbeat IPC: 2.10929 cumulative IPC: 2.43738 (Simulation time: 0 hr 11 min 42 sec) 
Heartbeat CPU 0 instructions: 9000001 cycles: 3620602 heartbeat IPC: 2.95514 cumulative IPC: 2.48577 (Simulation time: 0 hr 13 min 3 sec) 
Heartbeat CPU 0 instructions: 10000000 cycles: 3973916 heartbeat IPC: 2.83034 cumulative IPC: 2.51641 (Simulation time: 0 hr 14 min 17 sec) 

Warmup complete CPU 0 instructions: 10000004 cycles: 3973917 (Simulation time: 0 hr 14 min 17 sec) 

Heartbeat CPU 0 instructions: 11000002 cycles: 6511968 heartbeat IPC: 0.394004 cumulative IPC: 0.394002 (Simulation time: 0 hr 16 min 12 sec) 
Heartbeat CPU 0 instructions: 12000000 cycles: 8919256 heartbeat IPC: 0.415404 cumulative IPC: 0.40442 (Simulation time: 0 hr 18 min 2 sec) 
Heartbeat CPU 0 instructions: 13000001 cycles: 10436820 heartbeat IPC: 0.658951 cumulative IPC: 0.464187 (Simulation time: 0 hr 19 min 31 sec) 
Heartbeat CPU 0 instructions: 14000001 cycles: 11824434 heartbeat IPC: 0.720662 cumulative IPC: 0.50952 (Simulation time: 0 hr 21 min 6 sec) 
Heartbeat CPU 0 instructions: 15000000 cycles: 13568988 heartbeat IPC: 0.573212 cumulative IPC: 0.5211 (Simulation time: 0 hr 22 min 50 sec) 
Heartbeat CPU 0 instructions: 16000000 cycles: 16015127 heartbeat IPC: 0.408808 cumulative IPC: 0.498288 (Simulation time: 0 hr 24 min 37 sec) 
Heartbeat CPU 0 instructions: 17000000 cycles: 18414981 heartbeat IPC: 0.416692 cumulative IPC: 0.484729 (Simulation time: 0 hr 26 min 19 sec) 
Heartbeat CPU 0 instructions: 18000002 cycles: 20033606 heartbeat IPC: 0.61781 cumulative IPC: 0.498142 (Simulation time: 0 hr 27 min 54 sec) 
Heartbeat CPU 0 instructions: 19000000 cycles: 21304630 heartbeat IPC: 0.786766 cumulative IPC: 0.519309 (Simulation time: 0 hr 29 min 25 sec) 
Heartbeat CPU 0 instructions: 20000000 cycles: 22631726 heartbeat IPC: 0.753525 cumulative IPC: 0.535968 (Simulation time: 0 hr 30 min 55 sec) 
Heartbeat CPU 0 instructions: 21000000 cycles: 25078643 heartbeat IPC: 0.408678 cumulative IPC: 0.52121 (Simulation time: 0 hr 32 min 34 sec) 
Heartbeat CPU 0 instructions: 22000003 cycles: 27570951 heartbeat IPC: 0.401236 cumulative IPC: 0.508538 (Simulation time: 0 hr 34 min 22 sec) 
Heartbeat CPU 0 instructions: 23000003 cycles: 29733844 heartbeat IPC: 0.462344 cumulative IPC: 0.50466 (Simulation time: 0 hr 36 min 3 sec) 
Heartbeat CPU 0 instructions: 24000000 cycles: 31017592 heartbeat IPC: 0.778967 cumulative IPC: 0.517681 (Simulation time: 0 hr 37 min 47 sec) 
Heartbeat CPU 0 instructions: 25000003 cycles: 32312059 heartbeat IPC: 0.772521 cumulative IPC: 0.529322 (Simulation time: 0 hr 39 min 31 sec) 
Heartbeat CPU 0 instructions: 26000001 cycles: 34156564 heartbeat IPC: 0.54215 cumulative IPC: 0.530106 (Simulation time: 0 hr 41 min 25 sec) 
Heartbeat CPU 0 instructions: 27000001 cycles: 36521645 heartbeat IPC: 0.422819 cumulative IPC: 0.52231 (Simulation time: 0 hr 43 min 16 sec) 
Heartbeat CPU 0 instructions: 28000000 cycles: 38703907 heartbeat IPC: 0.45824 cumulative IPC: 0.518284 (Simulation time: 0 hr 44 min 53 sec) 
Heartbeat CPU 0 instructions: 29000000 cycles: 40029815 heartbeat IPC: 0.7542 cumulative IPC: 0.526959 (Simulation time: 0 hr 46 min 25 sec) 
Heartbeat CPU 0 instructions: 30000002 cycles: 41375297 heartbeat IPC: 0.74323 cumulative IPC: 0.53474 (Simulation time: 0 hr 47 min 52 sec) 
Heartbeat CPU 0 instructions: 31000002 cycles: 43011585 heartbeat IPC: 0.611139 cumulative IPC: 0.537942 (Simulation time: 0 hr 49 min 29 sec) 
Heartbeat CPU 0 instructions: 32000000 cycles: 45363184 heartbeat IPC: 0.425242 cumulative IPC: 0.531539 (Simulation time: 0 hr 51 min 15 sec) 
Heartbeat CPU 0 instructions: 33000000 cycles: 47549544 heartbeat IPC: 0.457381 cumulative IPC: 0.527818 (Simulation time: 0 hr 52 min 47 sec) 
Heartbeat CPU 0 instructions: 34000000 cycles: 48939329 heartbeat IPC: 0.719536 cumulative IPC: 0.533744 (Simulation time: 0 hr 54 min 12 sec) 
Heartbeat CPU 0 instructions: 35000002 cycles: 50298898 heartbeat IPC: 0.735529 cumulative IPC: 0.539666 (Simulation time: 0 hr 55 min 36 sec) 
Heartbeat CPU 0 instructions: 36000000 cycles: 51876481 heartbeat IPC: 0.63388 cumulative IPC: 0.542768 (Simulation time: 0 hr 57 min 3 sec) 
Heartbeat CPU 0 instructions: 37000001 cycles: 54245159 heartbeat IPC: 0.422177 cumulative IPC: 0.537086 (Simulation time: 0 hr 58 min 43 sec) 
Heartbeat CPU 0 instructions: 38000000 cycles: 56445495 heartbeat IPC: 0.454476 cumulative IPC: 0.533622 (Simulation time: 1 hr 0 min 11 sec) 
Heartbeat CPU 0 instructions: 39000000 cycles: 57799623 heartbeat IPC: 0.738483 cumulative IPC: 0.538776 (Simulation time: 1 hr 1 min 37 sec) 
Heartbeat CPU 0 instructions: 40000000 cycles: 59159657 heartbeat IPC: 0.735276 cumulative IPC: 0.543619 (Simulation time: 1 hr 3 min 6 sec) 
Heartbeat CPU 0 instructions: 41000003 cycles: 60718312 heartbeat IPC: 0.641581 cumulative IPC: 0.546309 (Simulation time: 1 hr 4 min 30 sec) 
Heartbeat CPU 0 instructions: 42000000 cycles: 63100711 heartbeat IPC: 0.419744 cumulative IPC: 0.54121 (Simulation time: 1 hr 6 min 12 sec) 
Heartbeat CPU 0 instructions: 43000003 cycles: 65301492 heartbeat IPC: 0.454386 cumulative IPC: 0.538094 (Simulation time: 1 hr 7 min 48 sec) 
Heartbeat CPU 0 instructions: 44000000 cycles: 66589023 heartbeat IPC: 0.776678 cumulative IPC: 0.543 (Simulation time: 1 hr 9 min 8 sec) 
Heartbeat CPU 0 instructions: 45000002 cycles: 67946503 heartbeat IPC: 0.736661 cumulative IPC: 0.547109 (Simulation time: 1 hr 10 min 32 sec) 
Heartbeat CPU 0 instructions: 46000001 cycles: 69552962 heartbeat IPC: 0.622486 cumulative IPC: 0.548956 (Simulation time: 1 hr 12 min 2 sec) 
Heartbeat CPU 0 instructions: 47000002 cycles: 71900755 heartbeat IPC: 0.425932 cumulative IPC: 0.544704 (Simulation time: 1 hr 13 min 40 sec) 
Heartbeat CPU 0 instructions: 48000000 cycles: 74060592 heartbeat IPC: 0.462997 cumulative IPC: 0.542186 (Simulation time: 1 hr 15 min 12 sec) 
Heartbeat CPU 0 instructions: 49000001 cycles: 75279977 heartbeat IPC: 0.820086 cumulative IPC: 0.546938 (Simulation time: 1 hr 16 min 37 sec) 
Heartbeat CPU 0 instructions: 50000003 cycles: 76620338 heartbeat IPC: 0.746069 cumulative IPC: 0.550612 (Simulation time: 1 hr 18 min 2 sec) 
Heartbeat CPU 0 instructions: 51000003 cycles: 78288807 heartbeat IPC: 0.599352 cumulative IPC: 0.551706 (Simulation time: 1 hr 19 min 33 sec) 
Heartbeat CPU 0 instructions: 52000000 cycles: 80656903 heartbeat IPC: 0.422279 cumulative IPC: 0.547709 (Simulation time: 1 hr 21 min 11 sec) 
Heartbeat CPU 0 instructions: 53000000 cycles: 82864487 heartbeat IPC: 0.452984 cumulative IPC: 0.545059 (Simulation time: 1 hr 22 min 54 sec) 
Heartbeat CPU 0 instructions: 54000003 cycles: 84188906 heartbeat IPC: 0.75505 cumulative IPC: 0.548526 (Simulation time: 1 hr 24 min 29 sec) 
Heartbeat CPU 0 instructions: 55000002 cycles: 85495495 heartbeat IPC: 0.765351 cumulative IPC: 0.552001 (Simulation time: 1 hr 26 min 2 sec) 
Heartbeat CPU 0 instructions: 56000000 cycles: 86874584 heartbeat IPC: 0.725115 cumulative IPC: 0.554881 (Simulation time: 1 hr 27 min 37 sec) 
Heartbeat CPU 0 instructions: 57000002 cycles: 88555508 heartbeat IPC: 0.594912 cumulative IPC: 0.555676 (Simulation time: 1 hr 29 min 12 sec) 
Heartbeat CPU 0 instructions: 58000001 cycles: 89935056 heartbeat IPC: 0.724874 cumulative IPC: 0.558392 (Simulation time: 1 hr 30 min 44 sec) 
Heartbeat CPU 0 instructions: 59000001 cycles: 91312295 heartbeat IPC: 0.72609 cumulative IPC: 0.561036 (Simulation time: 1 hr 32 min 13 sec) 
Heartbeat CPU 0 instructions: 60000000 cycles: 92694341 heartbeat IPC: 0.723564 cumulative IPC: 0.563568 (Simulation time: 1 hr 33 min 44 sec) 
Heartbeat CPU 0 instructions: 61000001 cycles: 94344725 heartbeat IPC: 0.60592 cumulative IPC: 0.564341 (Simulation time: 1 hr 35 min 12 sec) 
Heartbeat CPU 0 instructions: 62000001 cycles: 95598917 heartbeat IPC: 0.797326 cumulative IPC: 0.567531 (Simulation time: 1 hr 36 min 38 sec) 
Heartbeat CPU 0 instructions: 63000003 cycles: 96875648 heartbeat IPC: 0.783252 cumulative IPC: 0.570495 (Simulation time: 1 hr 38 min 6 sec) 
Heartbeat CPU 0 instructions: 64000000 cycles: 98617449 heartbeat IPC: 0.574117 cumulative IPC: 0.570562 (Simulation time: 1 hr 39 min 34 sec) 
Heartbeat CPU 0 instructions: 65000003 cycles: 99774261 heartbeat IPC: 0.864447 cumulative IPC: 0.574111 (Simulation time: 1 hr 41 min 0 sec) 
Heartbeat CPU 0 instructions: 66000002 cycles: 101074176 heartbeat IPC: 0.76928 cumulative IPC: 0.576723 (Simulation time: 1 hr 42 min 28 sec) 
Heartbeat CPU 0 instructions: 67000000 cycles: 102900605 heartbeat IPC: 0.547515 cumulative IPC: 0.576184 (Simulation time: 1 hr 44 min 2 sec) 
Heartbeat CPU 0 instructions: 68000000 cycles: 105182745 heartbeat IPC: 0.438185 cumulative IPC: 0.573072 (Simulation time: 1 hr 45 min 34 sec) 
Heartbeat CPU 0 instructions: 69000003 cycles: 106261958 heartbeat IPC: 0.926604 cumulative IPC: 0.576802 (Simulation time: 1 hr 46 min 57 sec) 
Heartbeat CPU 0 instructions: 70000001 cycles: 107565653 heartbeat IPC: 0.767049 cumulative IPC: 0.579197 (Simulation time: 1 hr 48 min 22 sec) 
Heartbeat CPU 0 instructions: 71000002 cycles: 109268317 heartbeat IPC: 0.587315 cumulative IPC: 0.579328 (Simulation time: 1 hr 49 min 53 sec) 
Heartbeat CPU 0 instructions: 72000000 cycles: 111333318 heartbeat IPC: 0.48426 cumulative IPC: 0.577499 (Simulation time: 1 hr 51 min 29 sec) 
Heartbeat CPU 0 instructions: 73000000 cycles: 112444017 heartbeat IPC: 0.900334 cumulative IPC: 0.580805 (Simulation time: 1 hr 52 min 54 sec) 
Heartbeat CPU 0 instructions: 74000002 cycles: 113737976 heartbeat IPC: 0.772824 cumulative IPC: 0.583069 (Simulation time: 1 hr 54 min 22 sec) 
Heartbeat CPU 0 instructions: 75000000 cycles: 115518057 heartbeat IPC: 0.561771 cumulative IPC: 0.582729 (Simulation time: 1 hr 55 min 54 sec) 
Heartbeat CPU 0 instructions: 76000000 cycles: 117307155 heartbeat IPC: 0.558941 cumulative IPC: 0.582353 (Simulation time: 1 hr 57 min 25 sec) 
Heartbeat CPU 0 instructions: 77000000 cycles: 118498156 heartbeat IPC: 0.83963 cumulative IPC: 0.585029 (Simulation time: 1 hr 58 min 50 sec) 
Heartbeat CPU 0 instructions: 78000003 cycles: 119787466 heartbeat IPC: 0.775611 cumulative IPC: 0.587151 (Simulation time: 2 hr 0 min 15 sec) 
Heartbeat CPU 0 instructions: 79000001 cycles: 121784063 heartbeat IPC: 0.500851 cumulative IPC: 0.585688 (Simulation time: 2 hr 1 min 48 sec) 
Heartbeat CPU 0 instructions: 80000000 cycles: 123298741 heartbeat IPC: 0.660206 cumulative IPC: 0.586634 (Simulation time: 2 hr 3 min 13 sec) 
Heartbeat CPU 0 instructions: 81000002 cycles: 124525727 heartbeat IPC: 0.815007 cumulative IPC: 0.588958 (Simulation time: 2 hr 4 min 39 sec) 
Heartbeat CPU 0 instructions: 82000000 cycles: 125813969 heartbeat IPC: 0.77625 cumulative IPC: 0.590939 (Simulation time: 2 hr 6 min 7 sec) 
Heartbeat CPU 0 instructions: 83000001 cycles: 127931796 heartbeat IPC: 0.472183 cumulative IPC: 0.58891 (Simulation time: 2 hr 7 min 43 sec) 
Heartbeat CPU 0 instructions: 84000000 cycles: 129008327 heartbeat IPC: 0.928909 cumulative IPC: 0.591837 (Simulation time: 2 hr 9 min 5 sec) 
Heartbeat CPU 0 instructions: 85000001 cycles: 130308955 heartbeat IPC: 0.76886 cumulative IPC: 0.59366 (Simulation time: 2 hr 10 min 33 sec) 
Heartbeat CPU 0 instructions: 86000001 cycles: 131859016 heartbeat IPC: 0.645136 cumulative IPC: 0.594283 (Simulation time: 2 hr 12 min 4 sec) 
Heartbeat CPU 0 instructions: 87000000 cycles: 133470362 heartbeat IPC: 0.620599 cumulative IPC: 0.594611 (Simulation time: 2 hr 13 min 31 sec) 
Heartbeat CPU 0 instructions: 88000000 cycles: 134645349 heartbeat IPC: 0.851073 cumulative IPC: 0.596917 (Simulation time: 2 hr 14 min 53 sec) 
Heartbeat CPU 0 instructions: 89000001 cycles: 135915465 heartbeat IPC: 0.78733 cumulative IPC: 0.59875 (Simulation time: 2 hr 16 min 15 sec) 
Heartbeat CPU 0 instructions: 90000000 cycles: 137857082 heartbeat IPC: 0.515034 cumulative IPC: 0.597536 (Simulation time: 2 hr 17 min 49 sec) 
Heartbeat CPU 0 instructions: 91000003 cycles: 139150456 heartbeat IPC: 0.773174 cumulative IPC: 0.599216 (Simulation time: 2 hr 19 min 13 sec) 
Heartbeat CPU 0 instructions: 92000000 cycles: 140210798 heartbeat IPC: 0.943089 cumulative IPC: 0.601893 (Simulation time: 2 hr 20 min 29 sec) 
Heartbeat CPU 0 instructions: 93000000 cycles: 141452358 heartbeat IPC: 0.805438 cumulative IPC: 0.603731 (Simulation time: 2 hr 21 min 55 sec) 
Heartbeat CPU 0 instructions: 94000002 cycles: 142734950 heartbeat IPC: 0.779673 cumulative IPC: 0.605357 (Simulation time: 2 hr 23 min 16 sec) 
Heartbeat CPU 0 instructions: 95000001 cycles: 144690548 heartbeat IPC: 0.511352 cumulative IPC: 0.604051 (Simulation time: 2 hr 24 min 41 sec) 
Heartbeat CPU 0 instructions: 96000000 cycles: 145806893 heartbeat IPC: 0.89578 cumulative IPC: 0.606347 (Simulation time: 2 hr 25 min 53 sec) 
Heartbeat CPU 0 instructions: 97000000 cycles: 147089785 heartbeat IPC: 0.779489 cumulative IPC: 0.607899 (Simulation time: 2 hr 27 min 14 sec) 
Heartbeat CPU 0 instructions: 98000003 cycles: 148878498 heartbeat IPC: 0.559063 cumulative IPC: 0.607296 (Simulation time: 2 hr 28 min 31 sec) 
Heartbeat CPU 0 instructions: 99000000 cycles: 150210830 heartbeat IPC: 0.750561 cumulative IPC: 0.608601 (Simulation time: 2 hr 29 min 40 sec) 
Heartbeat CPU 0 instructions: 100000000 cycles: 151456030 heartbeat IPC: 0.803084 cumulative IPC: 0.610243 (Simulation time: 2 hr 30 min 50 sec) 
Heartbeat CPU 0 instructions: 101000002 cycles: 152736337 heartbeat IPC: 0.781064 cumulative IPC: 0.611714 (Simulation time: 2 hr 31 min 59 sec) 
Heartbeat CPU 0 instructions: 102000003 cycles: 154920794 heartbeat IPC: 0.45778 cumulative IPC: 0.609486 (Simulation time: 2 hr 33 min 11 sec) 
Heartbeat CPU 0 instructions: 103000001 cycles: 156087915 heartbeat IPC: 0.856807 cumulative IPC: 0.611384 (Simulation time: 2 hr 34 min 13 sec) 
Heartbeat CPU 0 instructions: 104000000 cycles: 157381962 heartbeat IPC: 0.772769 cumulative IPC: 0.612745 (Simulation time: 2 hr 35 min 17 sec) 
Heartbeat CPU 0 instructions: 105000002 cycles: 159013107 heartbeat IPC: 0.613068 cumulative IPC: 0.612748 (Simulation time: 2 hr 36 min 17 sec) 
Heartbeat CPU 0 instructions: 106000000 cycles: 161150004 heartbeat IPC: 0.467967 cumulative IPC: 0.61078 (Simulation time: 2 hr 37 min 18 sec) 
Heartbeat CPU 0 instructions: 107000000 cycles: 162290205 heartbeat IPC: 0.877038 cumulative IPC: 0.612698 (Simulation time: 2 hr 38 min 10 sec) 
Heartbeat CPU 0 instructions: 108000000 cycles: 163595945 heartbeat IPC: 0.765849 cumulative IPC: 0.61395 (Simulation time: 2 hr 39 min 6 sec) 
Heartbeat CPU 0 instructions: 109000001 cycles: 165312911 heartbeat IPC: 0.582423 cumulative IPC: 0.613615 (Simulation time: 2 hr 40 min 5 sec) 
Heartbeat CPU 0 instructions: 110000000 cycles: 167280627 heartbeat IPC: 0.508203 cumulative IPC: 0.612345 (Simulation time: 2 hr 41 min 4 sec) 
Finished CPU 0 instructions: 100000000 cycles: 163306711 cummulative IPC: 0.612345 (Simulation time: 2 hr 41 min 4 sec) 

ChampSim completed all CPUs

Region of Interest Statistics

CPU 0 cummulative IPC: 0.612345 instructions: 100000000 cycles: 163306711
LLC TOTAL     ACCESS:    1575111  HIT:     812169  MISS:     762942
LLC LOAD      ACCESS:    1332848  HIT:     596770  MISS:     736078
LLC RFO       ACCESS:     103773  HIT:      86769  MISS:      17004
LLC PREFETCH  ACCESS:          0  HIT:          0  MISS:          0
LLC WRITEBACK ACCESS:     138490  HIT:     128630  MISS:       9860
