
*** ChampSim Multicore Out-of-Order Simulator ***

Warmup Instructions: 10000000
Simulation Instructions: 100000000
Configuration: 1
Number of CPUs: 1
LLC sets: 2048
LLC ways: 16
Off-chip DRAM Channels: 1 Width: 64-bit Data Rate: 1600 MT/s

CPU 0 runs /datasets/cs240c-wi22-a00-public/data/Assignment2-gz/libquantum_1210B.trace.gz
config 1, num_core 1, llc_sets 2048
Heartbeat CPU 0 instructions: 1000003 cycles: 314916 heartbeat IPC: 3.17546 cumulative IPC: 3.17546 (Simulation time: 0 hr 0 min 57 sec) 
Heartbeat CPU 0 instructions: 2000000 cycles: 630173 heartbeat IPC: 3.17201 cumulative IPC: 3.17373 (Simulation time: 0 hr 1 min 50 sec) 
Heartbeat CPU 0 instructions: 3000003 cycles: 945982 heartbeat IPC: 3.16648 cumulative IPC: 3.17131 (Simulation time: 0 hr 2 min 43 sec) 
Heartbeat CPU 0 instructions: 4000000 cycles: 1260334 heartbeat IPC: 3.18114 cumulative IPC: 3.17376 (Simulation time: 0 hr 3 min 36 sec) 
Heartbeat CPU 0 instructions: 5000000 cycles: 1576820 heartbeat IPC: 3.1597 cumulative IPC: 3.17094 (Simulation time: 0 hr 4 min 29 sec) 
Heartbeat CPU 0 instructions: 6000000 cycles: 1891319 heartbeat IPC: 3.17966 cumulative IPC: 3.17239 (Simulation time: 0 hr 5 min 24 sec) 
Heartbeat CPU 0 instructions: 7000000 cycles: 2206983 heartbeat IPC: 3.16793 cumulative IPC: 3.17175 (Simulation time: 0 hr 6 min 22 sec) 
Heartbeat CPU 0 instructions: 8000000 cycles: 2522387 heartbeat IPC: 3.17054 cumulative IPC: 3.1716 (Simulation time: 0 hr 7 min 16 sec) 
Heartbeat CPU 0 instructions: 9000000 cycles: 2837146 heartbeat IPC: 3.17703 cumulative IPC: 3.1722 (Simulation time: 0 hr 8 min 9 sec) 
Heartbeat CPU 0 instructions: 10000001 cycles: 3153454 heartbeat IPC: 3.16148 cumulative IPC: 3.17113 (Simulation time: 0 hr 9 min 2 sec) 

Warmup complete CPU 0 instructions: 10000001 cycles: 3153454 (Simulation time: 0 hr 9 min 2 sec) 

Heartbeat CPU 0 instructions: 11000001 cycles: 6250231 heartbeat IPC: 0.322916 cumulative IPC: 0.322916 (Simulation time: 0 hr 10 min 34 sec) 
Heartbeat CPU 0 instructions: 12000000 cycles: 9246420 heartbeat IPC: 0.333757 cumulative IPC: 0.328247 (Simulation time: 0 hr 12 min 5 sec) 
Heartbeat CPU 0 instructions: 13000003 cycles: 12871990 heartbeat IPC: 0.27582 cumulative IPC: 0.308689 (Simulation time: 0 hr 13 min 42 sec) 
Heartbeat CPU 0 instructions: 14000001 cycles: 16567338 heartbeat IPC: 0.27061 cumulative IPC: 0.298198 (Simulation time: 0 hr 15 min 19 sec) 
Heartbeat CPU 0 instructions: 15000001 cycles: 20250710 heartbeat IPC: 0.27149 cumulative IPC: 0.292445 (Simulation time: 0 hr 16 min 55 sec) 
Heartbeat CPU 0 instructions: 16000000 cycles: 23973644 heartbeat IPC: 0.268605 cumulative IPC: 0.288182 (Simulation time: 0 hr 18 min 34 sec) 
Heartbeat CPU 0 instructions: 17000000 cycles: 27673925 heartbeat IPC: 0.27025 cumulative IPC: 0.285476 (Simulation time: 0 hr 20 min 9 sec) 
Heartbeat CPU 0 instructions: 18000000 cycles: 31414706 heartbeat IPC: 0.267324 cumulative IPC: 0.283073 (Simulation time: 0 hr 21 min 48 sec) 
Heartbeat CPU 0 instructions: 19000000 cycles: 35151210 heartbeat IPC: 0.26763 cumulative IPC: 0.28127 (Simulation time: 0 hr 23 min 23 sec) 
Heartbeat CPU 0 instructions: 20000000 cycles: 38827567 heartbeat IPC: 0.272008 cumulative IPC: 0.280315 (Simulation time: 0 hr 24 min 56 sec) 
Heartbeat CPU 0 instructions: 21000001 cycles: 42512476 heartbeat IPC: 0.271377 cumulative IPC: 0.279478 (Simulation time: 0 hr 26 min 32 sec) 
Heartbeat CPU 0 instructions: 22000001 cycles: 46185824 heartbeat IPC: 0.272231 cumulative IPC: 0.27886 (Simulation time: 0 hr 28 min 10 sec) 
Heartbeat CPU 0 instructions: 23000000 cycles: 49886976 heartbeat IPC: 0.270186 cumulative IPC: 0.278173 (Simulation time: 0 hr 29 min 48 sec) 
Heartbeat CPU 0 instructions: 24000000 cycles: 53611582 heartbeat IPC: 0.268485 cumulative IPC: 0.277458 (Simulation time: 0 hr 31 min 27 sec) 
Heartbeat CPU 0 instructions: 25000000 cycles: 57341415 heartbeat IPC: 0.268109 cumulative IPC: 0.276814 (Simulation time: 0 hr 33 min 7 sec) 
Heartbeat CPU 0 instructions: 26000000 cycles: 61065842 heartbeat IPC: 0.268498 cumulative IPC: 0.276279 (Simulation time: 0 hr 34 min 52 sec) 
Heartbeat CPU 0 instructions: 27000003 cycles: 64800285 heartbeat IPC: 0.267778 cumulative IPC: 0.275764 (Simulation time: 0 hr 36 min 30 sec) 
Heartbeat CPU 0 instructions: 28000000 cycles: 68286979 heartbeat IPC: 0.286804 cumulative IPC: 0.276355 (Simulation time: 0 hr 38 min 25 sec) 
Heartbeat CPU 0 instructions: 29000002 cycles: 70209579 heartbeat IPC: 0.52013 cumulative IPC: 0.283345 (Simulation time: 0 hr 40 min 31 sec) 
Heartbeat CPU 0 instructions: 30000001 cycles: 72125409 heartbeat IPC: 0.521966 cumulative IPC: 0.289973 (Simulation time: 0 hr 42 min 30 sec) 
Heartbeat CPU 0 instructions: 31000000 cycles: 74041308 heartbeat IPC: 0.521948 cumulative IPC: 0.296243 (Simulation time: 0 hr 44 min 26 sec) 
Heartbeat CPU 0 instructions: 32000000 cycles: 75957028 heartbeat IPC: 0.521997 cumulative IPC: 0.302183 (Simulation time: 0 hr 46 min 29 sec) 
Heartbeat CPU 0 instructions: 33000000 cycles: 77872975 heartbeat IPC: 0.521935 cumulative IPC: 0.307818 (Simulation time: 0 hr 48 min 46 sec) 
Heartbeat CPU 0 instructions: 34000002 cycles: 79788690 heartbeat IPC: 0.521999 cumulative IPC: 0.313172 (Simulation time: 0 hr 50 min 59 sec) 
Heartbeat CPU 0 instructions: 35000001 cycles: 81704596 heartbeat IPC: 0.521946 cumulative IPC: 0.318264 (Simulation time: 0 hr 52 min 57 sec) 
Heartbeat CPU 0 instructions: 36000000 cycles: 83614960 heartbeat IPC: 0.52346 cumulative IPC: 0.323136 (Simulation time: 0 hr 54 min 59 sec) 
Heartbeat CPU 0 instructions: 37000003 cycles: 85530800 heartbeat IPC: 0.521966 cumulative IPC: 0.32776 (Simulation time: 0 hr 57 min 5 sec) 
Heartbeat CPU 0 instructions: 38000002 cycles: 87446516 heartbeat IPC: 0.521998 cumulative IPC: 0.332174 (Simulation time: 0 hr 59 min 10 sec) 
Heartbeat CPU 0 instructions: 39000001 cycles: 89362313 heartbeat IPC: 0.521975 cumulative IPC: 0.336392 (Simulation time: 1 hr 1 min 22 sec) 
Heartbeat CPU 0 instructions: 40000000 cycles: 91278113 heartbeat IPC: 0.521975 cumulative IPC: 0.340427 (Simulation time: 1 hr 3 min 25 sec) 
Heartbeat CPU 0 instructions: 41000001 cycles: 93193952 heartbeat IPC: 0.521965 cumulative IPC: 0.34429 (Simulation time: 1 hr 5 min 25 sec) 
Heartbeat CPU 0 instructions: 42000000 cycles: 95109668 heartbeat IPC: 0.521998 cumulative IPC: 0.347992 (Simulation time: 1 hr 7 min 30 sec) 
Heartbeat CPU 0 instructions: 43000002 cycles: 97025466 heartbeat IPC: 0.521977 cumulative IPC: 0.351543 (Simulation time: 1 hr 9 min 26 sec) 
Heartbeat CPU 0 instructions: 44000000 cycles: 98941266 heartbeat IPC: 0.521974 cumulative IPC: 0.354951 (Simulation time: 1 hr 11 min 15 sec) 
Heartbeat CPU 0 instructions: 45000000 cycles: 100857108 heartbeat IPC: 0.521964 cumulative IPC: 0.358226 (Simulation time: 1 hr 13 min 2 sec) 
Heartbeat CPU 0 instructions: 46000001 cycles: 102772826 heartbeat IPC: 0.521998 cumulative IPC: 0.361376 (Simulation time: 1 hr 14 min 53 sec) 
Heartbeat CPU 0 instructions: 47000002 cycles: 104889762 heartbeat IPC: 0.472381 cumulative IPC: 0.363685 (Simulation time: 1 hr 16 min 47 sec) 
Heartbeat CPU 0 instructions: 48000000 cycles: 107980315 heartbeat IPC: 0.323566 cumulative IPC: 0.362502 (Simulation time: 1 hr 18 min 42 sec) 
Heartbeat CPU 0 instructions: 49000003 cycles: 111058494 heartbeat IPC: 0.324868 cumulative IPC: 0.361429 (Simulation time: 1 hr 20 min 41 sec) 
Heartbeat CPU 0 instructions: 50000003 cycles: 114160968 heartbeat IPC: 0.322323 cumulative IPC: 0.360336 (Simulation time: 1 hr 22 min 52 sec) 
Heartbeat CPU 0 instructions: 51000000 cycles: 117273014 heartbeat IPC: 0.321331 cumulative IPC: 0.359272 (Simulation time: 1 hr 24 min 54 sec) 
Heartbeat CPU 0 instructions: 52000000 cycles: 120383917 heartbeat IPC: 0.32145 cumulative IPC: 0.358269 (Simulation time: 1 hr 27 min 1 sec) 
Heartbeat CPU 0 instructions: 53000003 cycles: 123474723 heartbeat IPC: 0.323541 cumulative IPC: 0.357377 (Simulation time: 1 hr 29 min 13 sec) 
Heartbeat CPU 0 instructions: 54000003 cycles: 126563984 heartbeat IPC: 0.323702 cumulative IPC: 0.356534 (Simulation time: 1 hr 31 min 21 sec) 
Heartbeat CPU 0 instructions: 55000002 cycles: 129655641 heartbeat IPC: 0.323451 cumulative IPC: 0.355725 (Simulation time: 1 hr 33 min 19 sec) 
Heartbeat CPU 0 instructions: 56000000 cycles: 132779176 heartbeat IPC: 0.320149 cumulative IPC: 0.354868 (Simulation time: 1 hr 35 min 17 sec) 
Heartbeat CPU 0 instructions: 57000001 cycles: 135889024 heartbeat IPC: 0.321559 cumulative IPC: 0.354087 (Simulation time: 1 hr 37 min 15 sec) 
Heartbeat CPU 0 instructions: 58000000 cycles: 139000775 heartbeat IPC: 0.321362 cumulative IPC: 0.353338 (Simulation time: 1 hr 39 min 18 sec) 
Heartbeat CPU 0 instructions: 59000000 cycles: 142097003 heartbeat IPC: 0.322974 cumulative IPC: 0.352661 (Simulation time: 1 hr 41 min 28 sec) 
Heartbeat CPU 0 instructions: 60000000 cycles: 145176674 heartbeat IPC: 0.32471 cumulative IPC: 0.352055 (Simulation time: 1 hr 43 min 39 sec) 
Heartbeat CPU 0 instructions: 61000001 cycles: 148273456 heartbeat IPC: 0.322916 cumulative IPC: 0.351433 (Simulation time: 1 hr 45 min 45 sec) 
Heartbeat CPU 0 instructions: 62000000 cycles: 151407616 heartbeat IPC: 0.319064 cumulative IPC: 0.350749 (Simulation time: 1 hr 47 min 53 sec) 
Heartbeat CPU 0 instructions: 63000001 cycles: 154468586 heartbeat IPC: 0.326694 cumulative IPC: 0.350262 (Simulation time: 1 hr 49 min 42 sec) 
Heartbeat CPU 0 instructions: 64000000 cycles: 157493127 heartbeat IPC: 0.330628 cumulative IPC: 0.349878 (Simulation time: 1 hr 51 min 39 sec) 
Heartbeat CPU 0 instructions: 65000000 cycles: 160490416 heartbeat IPC: 0.333635 cumulative IPC: 0.349568 (Simulation time: 1 hr 53 min 36 sec) 
Heartbeat CPU 0 instructions: 66000001 cycles: 163545835 heartbeat IPC: 0.327288 cumulative IPC: 0.349144 (Simulation time: 1 hr 55 min 30 sec) 
Heartbeat CPU 0 instructions: 67000000 cycles: 166512275 heartbeat IPC: 0.337104 cumulative IPC: 0.348925 (Simulation time: 1 hr 57 min 23 sec) 
Heartbeat CPU 0 instructions: 68000000 cycles: 169572938 heartbeat IPC: 0.326727 cumulative IPC: 0.348517 (Simulation time: 1 hr 59 min 23 sec) 
Heartbeat CPU 0 instructions: 69000002 cycles: 172557226 heartbeat IPC: 0.335089 cumulative IPC: 0.34828 (Simulation time: 2 hr 1 min 16 sec) 
Heartbeat CPU 0 instructions: 70000000 cycles: 175601390 heartbeat IPC: 0.328497 cumulative IPC: 0.347931 (Simulation time: 2 hr 3 min 4 sec) 
Heartbeat CPU 0 instructions: 71000000 cycles: 178655616 heartbeat IPC: 0.327415 cumulative IPC: 0.347574 (Simulation time: 2 hr 4 min 57 sec) 
Heartbeat CPU 0 instructions: 72000000 cycles: 181647939 heartbeat IPC: 0.334189 cumulative IPC: 0.34735 (Simulation time: 2 hr 6 min 59 sec) 
Heartbeat CPU 0 instructions: 73000002 cycles: 184721964 heartbeat IPC: 0.325307 cumulative IPC: 0.346976 (Simulation time: 2 hr 8 min 55 sec) 
Heartbeat CPU 0 instructions: 74000002 cycles: 187688987 heartbeat IPC: 0.337038 cumulative IPC: 0.346817 (Simulation time: 2 hr 10 min 51 sec) 
Heartbeat CPU 0 instructions: 75000001 cycles: 190739135 heartbeat IPC: 0.327853 cumulative IPC: 0.346508 (Simulation time: 2 hr 12 min 46 sec) 
Heartbeat CPU 0 instructions: 76000000 cycles: 193762697 heartbeat IPC: 0.330735 cumulative IPC: 0.346258 (Simulation time: 2 hr 14 min 36 sec) 
Heartbeat CPU 0 instructions: 77000002 cycles: 196764719 heartbeat IPC: 0.333109 cumulative IPC: 0.346054 (Simulation time: 2 hr 16 min 30 sec) 
Heartbeat CPU 0 instructions: 78000002 cycles: 199844703 heartbeat IPC: 0.324677 cumulative IPC: 0.34572 (Simulation time: 2 hr 18 min 27 sec) 
Heartbeat CPU 0 instructions: 79000001 cycles: 202807800 heartbeat IPC: 0.337484 cumulative IPC: 0.345597 (Simulation time: 2 hr 20 min 20 sec) 
Heartbeat CPU 0 instructions: 80000000 cycles: 205878976 heartbeat IPC: 0.325608 cumulative IPC: 0.345294 (Simulation time: 2 hr 22 min 16 sec) 
Heartbeat CPU 0 instructions: 81000001 cycles: 208895514 heartbeat IPC: 0.331506 cumulative IPC: 0.345092 (Simulation time: 2 hr 24 min 13 sec) 
Heartbeat CPU 0 instructions: 82000000 cycles: 211938281 heartbeat IPC: 0.328648 cumulative IPC: 0.344853 (Simulation time: 2 hr 26 min 2 sec) 
Heartbeat CPU 0 instructions: 83000001 cycles: 215162679 heartbeat IPC: 0.310136 cumulative IPC: 0.344325 (Simulation time: 2 hr 28 min 1 sec) 
Heartbeat CPU 0 instructions: 84000000 cycles: 218500327 heartbeat IPC: 0.299612 cumulative IPC: 0.343632 (Simulation time: 2 hr 29 min 54 sec) 
Heartbeat CPU 0 instructions: 85000001 cycles: 221827918 heartbeat IPC: 0.300518 cumulative IPC: 0.342976 (Simulation time: 2 hr 31 min 40 sec) 
Heartbeat CPU 0 instructions: 86000000 cycles: 225203522 heartbeat IPC: 0.296243 cumulative IPC: 0.342265 (Simulation time: 2 hr 33 min 26 sec) 
Heartbeat CPU 0 instructions: 87000003 cycles: 228553672 heartbeat IPC: 0.298495 cumulative IPC: 0.341615 (Simulation time: 2 hr 35 min 0 sec) 
Heartbeat CPU 0 instructions: 88000000 cycles: 231927815 heartbeat IPC: 0.296371 cumulative IPC: 0.340947 (Simulation time: 2 hr 36 min 28 sec) 
Heartbeat CPU 0 instructions: 89000001 cycles: 235315855 heartbeat IPC: 0.295156 cumulative IPC: 0.340279 (Simulation time: 2 hr 38 min 0 sec) 
Heartbeat CPU 0 instructions: 90000000 cycles: 238674042 heartbeat IPC: 0.297779 cumulative IPC: 0.339673 (Simulation time: 2 hr 39 min 25 sec) 
Heartbeat CPU 0 instructions: 91000002 cycles: 242000115 heartbeat IPC: 0.300655 cumulative IPC: 0.33913 (Simulation time: 2 hr 40 min 52 sec) 
Heartbeat CPU 0 instructions: 92000000 cycles: 245327577 heartbeat IPC: 0.300529 cumulative IPC: 0.338599 (Simulation time: 2 hr 42 min 14 sec) 
Heartbeat CPU 0 instructions: 93000003 cycles: 248671905 heartbeat IPC: 0.299015 cumulative IPC: 0.33806 (Simulation time: 2 hr 43 min 42 sec) 
Heartbeat CPU 0 instructions: 94000000 cycles: 252044521 heartbeat IPC: 0.296505 cumulative IPC: 0.337497 (Simulation time: 2 hr 45 min 3 sec) 
Heartbeat CPU 0 instructions: 95000002 cycles: 255417603 heartbeat IPC: 0.296465 cumulative IPC: 0.336948 (Simulation time: 2 hr 46 min 27 sec) 
Heartbeat CPU 0 instructions: 96000000 cycles: 258797409 heartbeat IPC: 0.295874 cumulative IPC: 0.336405 (Simulation time: 2 hr 47 min 51 sec) 
Heartbeat CPU 0 instructions: 97000001 cycles: 262174572 heartbeat IPC: 0.296107 cumulative IPC: 0.33588 (Simulation time: 2 hr 49 min 4 sec) 
Heartbeat CPU 0 instructions: 98000002 cycles: 265537946 heartbeat IPC: 0.297321 cumulative IPC: 0.335386 (Simulation time: 2 hr 50 min 13 sec) 
Heartbeat CPU 0 instructions: 99000002 cycles: 267729955 heartbeat IPC: 0.456203 cumulative IPC: 0.336387 (Simulation time: 2 hr 51 min 21 sec) 
Heartbeat CPU 0 instructions: 100000000 cycles: 269728649 heartbeat IPC: 0.500326 cumulative IPC: 0.337616 (Simulation time: 2 hr 52 min 21 sec) 
Heartbeat CPU 0 instructions: 101000000 cycles: 271727385 heartbeat IPC: 0.500316 cumulative IPC: 0.338827 (Simulation time: 2 hr 53 min 20 sec) 
Heartbeat CPU 0 instructions: 102000001 cycles: 273725997 heartbeat IPC: 0.500348 cumulative IPC: 0.34002 (Simulation time: 2 hr 54 min 20 sec) 
Heartbeat CPU 0 instructions: 103000002 cycles: 275724686 heartbeat IPC: 0.500328 cumulative IPC: 0.341195 (Simulation time: 2 hr 55 min 13 sec) 
Heartbeat CPU 0 instructions: 104000000 cycles: 277723380 heartbeat IPC: 0.500326 cumulative IPC: 0.342354 (Simulation time: 2 hr 55 min 56 sec) 
Heartbeat CPU 0 instructions: 105000000 cycles: 279722116 heartbeat IPC: 0.500316 cumulative IPC: 0.343495 (Simulation time: 2 hr 56 min 38 sec) 
Heartbeat CPU 0 instructions: 106000000 cycles: 281715093 heartbeat IPC: 0.501762 cumulative IPC: 0.344627 (Simulation time: 2 hr 57 min 18 sec) 
Heartbeat CPU 0 instructions: 107000000 cycles: 283713698 heartbeat IPC: 0.500349 cumulative IPC: 0.345737 (Simulation time: 2 hr 57 min 56 sec) 
Heartbeat CPU 0 instructions: 108000000 cycles: 285712393 heartbeat IPC: 0.500326 cumulative IPC: 0.34683 (Simulation time: 2 hr 58 min 29 sec) 
Heartbeat CPU 0 instructions: 109000001 cycles: 287711131 heartbeat IPC: 0.500316 cumulative IPC: 0.347908 (Simulation time: 2 hr 58 min 56 sec) 
Heartbeat CPU 0 instructions: 110000000 cycles: 289709828 heartbeat IPC: 0.500325 cumulative IPC: 0.348971 (Simulation time: 2 hr 59 min 20 sec) 
Finished CPU 0 instructions: 100000003 cycles: 286556376 cummulative IPC: 0.348971 (Simulation time: 2 hr 59 min 20 sec) 

ChampSim completed all CPUs

Region of Interest Statistics

CPU 0 cummulative IPC: 0.348971 instructions: 100000003 cycles: 286556376
LLC TOTAL     ACCESS:    4047234  HIT:       3267  MISS:    4043967
LLC LOAD      ACCESS:    3006773  HIT:       2940  MISS:    3003833
LLC RFO       ACCESS:         24  HIT:          3  MISS:         21
LLC PREFETCH  ACCESS:          0  HIT:          0  MISS:          0
LLC WRITEBACK ACCESS:    1040437  HIT:        324  MISS:    1040113
