
*** ChampSim Multicore Out-of-Order Simulator ***

Warmup Instructions: 10000000
Simulation Instructions: 100000000
Configuration: 1
Number of CPUs: 1
LLC sets: 2048
LLC ways: 16
Off-chip DRAM Channels: 1 Width: 64-bit Data Rate: 1600 MT/s

CPU 0 runs /datasets/cs240c-wi22-a00-public/data/Assignment2-gz/gcc_13B.trace.gz
config 1, num_core 1, llc_sets 2048
Heartbeat CPU 0 instructions: 1000000 cycles: 644744 heartbeat IPC: 1.551 cumulative IPC: 1.551 (Simulation time: 0 hr 1 min 34 sec) 
Heartbeat CPU 0 instructions: 2000001 cycles: 1257543 heartbeat IPC: 1.63186 cumulative IPC: 1.5904 (Simulation time: 0 hr 3 min 5 sec) 
Heartbeat CPU 0 instructions: 3000000 cycles: 1735567 heartbeat IPC: 2.09194 cumulative IPC: 1.72854 (Simulation time: 0 hr 4 min 35 sec) 
Heartbeat CPU 0 instructions: 4000000 cycles: 2213352 heartbeat IPC: 2.09299 cumulative IPC: 1.80721 (Simulation time: 0 hr 6 min 6 sec) 
Heartbeat CPU 0 instructions: 5000002 cycles: 2691625 heartbeat IPC: 2.09086 cumulative IPC: 1.85761 (Simulation time: 0 hr 7 min 37 sec) 
Heartbeat CPU 0 instructions: 6000001 cycles: 3169619 heartbeat IPC: 2.09207 cumulative IPC: 1.89297 (Simulation time: 0 hr 8 min 58 sec) 
Heartbeat CPU 0 instructions: 7000003 cycles: 3649270 heartbeat IPC: 2.08485 cumulative IPC: 1.91819 (Simulation time: 0 hr 10 min 26 sec) 
Heartbeat CPU 0 instructions: 8000000 cycles: 4130792 heartbeat IPC: 2.07674 cumulative IPC: 1.93667 (Simulation time: 0 hr 11 min 52 sec) 
Heartbeat CPU 0 instructions: 9000001 cycles: 4871388 heartbeat IPC: 1.35027 cumulative IPC: 1.84752 (Simulation time: 0 hr 13 min 28 sec) 
Heartbeat CPU 0 instructions: 10000001 cycles: 5580009 heartbeat IPC: 1.41119 cumulative IPC: 1.79211 (Simulation time: 0 hr 15 min 1 sec) 

Warmup complete CPU 0 instructions: 10000001 cycles: 5580009 (Simulation time: 0 hr 15 min 1 sec) 

Heartbeat CPU 0 instructions: 11000000 cycles: 13895955 heartbeat IPC: 0.120251 cumulative IPC: 0.120251 (Simulation time: 0 hr 17 min 32 sec) 
Heartbeat CPU 0 instructions: 12000000 cycles: 21927326 heartbeat IPC: 0.124512 cumulative IPC: 0.122344 (Simulation time: 0 hr 20 min 4 sec) 
Heartbeat CPU 0 instructions: 13000000 cycles: 29329973 heartbeat IPC: 0.135087 cumulative IPC: 0.126316 (Simulation time: 0 hr 22 min 35 sec) 
Heartbeat CPU 0 instructions: 14000000 cycles: 36128586 heartbeat IPC: 0.147089 cumulative IPC: 0.130939 (Simulation time: 0 hr 25 min 2 sec) 
Heartbeat CPU 0 instructions: 15000000 cycles: 40324406 heartbeat IPC: 0.238332 cumulative IPC: 0.143908 (Simulation time: 0 hr 27 min 19 sec) 
Heartbeat CPU 0 instructions: 16000000 cycles: 44680014 heartbeat IPC: 0.229589 cumulative IPC: 0.153453 (Simulation time: 0 hr 29 min 28 sec) 
Heartbeat CPU 0 instructions: 17000000 cycles: 49093896 heartbeat IPC: 0.226558 cumulative IPC: 0.160868 (Simulation time: 0 hr 31 min 37 sec) 
Heartbeat CPU 0 instructions: 18000002 cycles: 53481637 heartbeat IPC: 0.227908 cumulative IPC: 0.167009 (Simulation time: 0 hr 33 min 51 sec) 
Heartbeat CPU 0 instructions: 19000002 cycles: 57875032 heartbeat IPC: 0.227614 cumulative IPC: 0.172101 (Simulation time: 0 hr 36 min 2 sec) 
Heartbeat CPU 0 instructions: 20000000 cycles: 62316948 heartbeat IPC: 0.225128 cumulative IPC: 0.176252 (Simulation time: 0 hr 38 min 11 sec) 
Heartbeat CPU 0 instructions: 21000001 cycles: 66746481 heartbeat IPC: 0.225758 cumulative IPC: 0.179837 (Simulation time: 0 hr 40 min 15 sec) 
Heartbeat CPU 0 instructions: 22000001 cycles: 72015104 heartbeat IPC: 0.189803 cumulative IPC: 0.180627 (Simulation time: 0 hr 42 min 50 sec) 
Heartbeat CPU 0 instructions: 23000002 cycles: 79608108 heartbeat IPC: 0.1317 cumulative IPC: 0.175609 (Simulation time: 0 hr 45 min 28 sec) 
Heartbeat CPU 0 instructions: 24000000 cycles: 87489103 heartbeat IPC: 0.126887 cumulative IPC: 0.170921 (Simulation time: 0 hr 47 min 55 sec) 
Heartbeat CPU 0 instructions: 25000000 cycles: 95119466 heartbeat IPC: 0.131055 cumulative IPC: 0.167524 (Simulation time: 0 hr 50 min 20 sec) 
Heartbeat CPU 0 instructions: 26000001 cycles: 102103558 heartbeat IPC: 0.143183 cumulative IPC: 0.165763 (Simulation time: 0 hr 52 min 35 sec) 
Heartbeat CPU 0 instructions: 27000001 cycles: 108469635 heartbeat IPC: 0.157083 cumulative IPC: 0.165226 (Simulation time: 0 hr 54 min 56 sec) 
Heartbeat CPU 0 instructions: 28000000 cycles: 112244709 heartbeat IPC: 0.264895 cumulative IPC: 0.168753 (Simulation time: 0 hr 57 min 2 sec) 
Heartbeat CPU 0 instructions: 29000000 cycles: 116346307 heartbeat IPC: 0.243807 cumulative IPC: 0.171532 (Simulation time: 0 hr 59 min 1 sec) 
Heartbeat CPU 0 instructions: 30000001 cycles: 120510083 heartbeat IPC: 0.240167 cumulative IPC: 0.174019 (Simulation time: 1 hr 0 min 46 sec) 
Heartbeat CPU 0 instructions: 31000000 cycles: 124691699 heartbeat IPC: 0.239142 cumulative IPC: 0.176305 (Simulation time: 1 hr 2 min 48 sec) 
Heartbeat CPU 0 instructions: 32000000 cycles: 128836567 heartbeat IPC: 0.241262 cumulative IPC: 0.178489 (Simulation time: 1 hr 4 min 54 sec) 
Heartbeat CPU 0 instructions: 33000000 cycles: 132983307 heartbeat IPC: 0.241153 cumulative IPC: 0.180529 (Simulation time: 1 hr 6 min 58 sec) 
Heartbeat CPU 0 instructions: 34000000 cycles: 137690982 heartbeat IPC: 0.212419 cumulative IPC: 0.181665 (Simulation time: 1 hr 9 min 2 sec) 
Heartbeat CPU 0 instructions: 35000000 cycles: 152805620 heartbeat IPC: 0.066161 cumulative IPC: 0.169807 (Simulation time: 1 hr 13 min 44 sec) 
Heartbeat CPU 0 instructions: 36000000 cycles: 156704578 heartbeat IPC: 0.256479 cumulative IPC: 0.172043 (Simulation time: 1 hr 15 min 30 sec) 
Heartbeat CPU 0 instructions: 37000003 cycles: 160573938 heartbeat IPC: 0.258441 cumulative IPC: 0.1742 (Simulation time: 1 hr 17 min 14 sec) 
Heartbeat CPU 0 instructions: 38000000 cycles: 164462635 heartbeat IPC: 0.257155 cumulative IPC: 0.176231 (Simulation time: 1 hr 18 min 59 sec) 
Heartbeat CPU 0 instructions: 39000000 cycles: 168265239 heartbeat IPC: 0.262978 cumulative IPC: 0.178258 (Simulation time: 1 hr 20 min 46 sec) 
Heartbeat CPU 0 instructions: 40000000 cycles: 171976298 heartbeat IPC: 0.269465 cumulative IPC: 0.180292 (Simulation time: 1 hr 22 min 32 sec) 
Heartbeat CPU 0 instructions: 41000000 cycles: 175676226 heartbeat IPC: 0.270276 cumulative IPC: 0.18225 (Simulation time: 1 hr 24 min 18 sec) 
Heartbeat CPU 0 instructions: 42000000 cycles: 179397034 heartbeat IPC: 0.268759 cumulative IPC: 0.184102 (Simulation time: 1 hr 26 min 3 sec) 
Heartbeat CPU 0 instructions: 43000002 cycles: 183118569 heartbeat IPC: 0.268707 cumulative IPC: 0.185875 (Simulation time: 1 hr 27 min 51 sec) 
Heartbeat CPU 0 instructions: 44000000 cycles: 186842935 heartbeat IPC: 0.268502 cumulative IPC: 0.187573 (Simulation time: 1 hr 29 min 35 sec) 
Heartbeat CPU 0 instructions: 45000001 cycles: 190538463 heartbeat IPC: 0.270598 cumulative IPC: 0.189232 (Simulation time: 1 hr 31 min 18 sec) 
Heartbeat CPU 0 instructions: 46000001 cycles: 194208848 heartbeat IPC: 0.272451 cumulative IPC: 0.190851 (Simulation time: 1 hr 33 min 5 sec) 
Heartbeat CPU 0 instructions: 47000001 cycles: 197882923 heartbeat IPC: 0.272177 cumulative IPC: 0.192405 (Simulation time: 1 hr 34 min 52 sec) 
Heartbeat CPU 0 instructions: 48000000 cycles: 201539008 heartbeat IPC: 0.273516 cumulative IPC: 0.193918 (Simulation time: 1 hr 36 min 40 sec) 
Heartbeat CPU 0 instructions: 49000000 cycles: 205220708 heartbeat IPC: 0.271614 cumulative IPC: 0.195351 (Simulation time: 1 hr 38 min 26 sec) 
Heartbeat CPU 0 instructions: 50000003 cycles: 208896111 heartbeat IPC: 0.27208 cumulative IPC: 0.196738 (Simulation time: 1 hr 40 min 28 sec) 
Heartbeat CPU 0 instructions: 51000001 cycles: 212570960 heartbeat IPC: 0.272119 cumulative IPC: 0.198076 (Simulation time: 1 hr 42 min 26 sec) 
Heartbeat CPU 0 instructions: 52000000 cycles: 216215295 heartbeat IPC: 0.274398 cumulative IPC: 0.199397 (Simulation time: 1 hr 44 min 34 sec) 
Heartbeat CPU 0 instructions: 53000001 cycles: 219876161 heartbeat IPC: 0.27316 cumulative IPC: 0.200657 (Simulation time: 1 hr 46 min 32 sec) 
Heartbeat CPU 0 instructions: 54000000 cycles: 223526856 heartbeat IPC: 0.27392 cumulative IPC: 0.201884 (Simulation time: 1 hr 48 min 31 sec) 
Heartbeat CPU 0 instructions: 55000000 cycles: 227193639 heartbeat IPC: 0.272719 cumulative IPC: 0.203056 (Simulation time: 1 hr 50 min 32 sec) 
Heartbeat CPU 0 instructions: 56000000 cycles: 230852790 heartbeat IPC: 0.273287 cumulative IPC: 0.204197 (Simulation time: 1 hr 52 min 41 sec) 
Heartbeat CPU 0 instructions: 57000002 cycles: 234470845 heartbeat IPC: 0.276392 cumulative IPC: 0.205338 (Simulation time: 1 hr 54 min 58 sec) 
Heartbeat CPU 0 instructions: 58000001 cycles: 238089063 heartbeat IPC: 0.276379 cumulative IPC: 0.206444 (Simulation time: 1 hr 57 min 13 sec) 
Heartbeat CPU 0 instructions: 59000003 cycles: 241678715 heartbeat IPC: 0.278579 cumulative IPC: 0.20754 (Simulation time: 1 hr 59 min 23 sec) 
Heartbeat CPU 0 instructions: 60000000 cycles: 245259304 heartbeat IPC: 0.279283 cumulative IPC: 0.208612 (Simulation time: 2 hr 1 min 35 sec) 
Heartbeat CPU 0 instructions: 61000000 cycles: 248838859 heartbeat IPC: 0.279364 cumulative IPC: 0.209653 (Simulation time: 2 hr 3 min 41 sec) 
Heartbeat CPU 0 instructions: 62000003 cycles: 252406562 heartbeat IPC: 0.280293 cumulative IPC: 0.210674 (Simulation time: 2 hr 5 min 39 sec) 
Heartbeat CPU 0 instructions: 63000001 cycles: 255992833 heartbeat IPC: 0.278841 cumulative IPC: 0.211651 (Simulation time: 2 hr 7 min 35 sec) 
Heartbeat CPU 0 instructions: 64000000 cycles: 259593669 heartbeat IPC: 0.277713 cumulative IPC: 0.212587 (Simulation time: 2 hr 9 min 40 sec) 
Heartbeat CPU 0 instructions: 65000000 cycles: 263225368 heartbeat IPC: 0.275353 cumulative IPC: 0.213472 (Simulation time: 2 hr 11 min 37 sec) 
Heartbeat CPU 0 instructions: 66000000 cycles: 266861761 heartbeat IPC: 0.274998 cumulative IPC: 0.214328 (Simulation time: 2 hr 13 min 28 sec) 
Heartbeat CPU 0 instructions: 67000001 cycles: 270723567 heartbeat IPC: 0.258946 cumulative IPC: 0.214978 (Simulation time: 2 hr 15 min 32 sec) 
Heartbeat CPU 0 instructions: 68000000 cycles: 274607087 heartbeat IPC: 0.257498 cumulative IPC: 0.215592 (Simulation time: 2 hr 17 min 39 sec) 
Heartbeat CPU 0 instructions: 69000003 cycles: 278483041 heartbeat IPC: 0.258002 cumulative IPC: 0.216194 (Simulation time: 2 hr 19 min 40 sec) 
Heartbeat CPU 0 instructions: 70000000 cycles: 282398401 heartbeat IPC: 0.255404 cumulative IPC: 0.216749 (Simulation time: 2 hr 21 min 43 sec) 
Heartbeat CPU 0 instructions: 71000002 cycles: 286106523 heartbeat IPC: 0.269679 cumulative IPC: 0.217448 (Simulation time: 2 hr 23 min 47 sec) 
Heartbeat CPU 0 instructions: 72000000 cycles: 289785604 heartbeat IPC: 0.271806 cumulative IPC: 0.218152 (Simulation time: 2 hr 25 min 44 sec) 
Heartbeat CPU 0 instructions: 73000003 cycles: 293469963 heartbeat IPC: 0.271418 cumulative IPC: 0.218834 (Simulation time: 2 hr 27 min 32 sec) 
Heartbeat CPU 0 instructions: 74000000 cycles: 297172419 heartbeat IPC: 0.27009 cumulative IPC: 0.219484 (Simulation time: 2 hr 29 min 18 sec) 
Heartbeat CPU 0 instructions: 75000000 cycles: 300874785 heartbeat IPC: 0.270098 cumulative IPC: 0.220119 (Simulation time: 2 hr 31 min 2 sec) 
Heartbeat CPU 0 instructions: 76000000 cycles: 304592975 heartbeat IPC: 0.268948 cumulative IPC: 0.220726 (Simulation time: 2 hr 32 min 36 sec) 
Heartbeat CPU 0 instructions: 77000000 cycles: 308282038 heartbeat IPC: 0.271072 cumulative IPC: 0.22134 (Simulation time: 2 hr 34 min 11 sec) 
Heartbeat CPU 0 instructions: 78000003 cycles: 311922117 heartbeat IPC: 0.27472 cumulative IPC: 0.221974 (Simulation time: 2 hr 35 min 36 sec) 
Heartbeat CPU 0 instructions: 79000000 cycles: 315586459 heartbeat IPC: 0.272899 cumulative IPC: 0.222576 (Simulation time: 2 hr 36 min 51 sec) 
Heartbeat CPU 0 instructions: 80000000 cycles: 319236972 heartbeat IPC: 0.273934 cumulative IPC: 0.223174 (Simulation time: 2 hr 38 min 5 sec) 
Heartbeat CPU 0 instructions: 81000001 cycles: 322880570 heartbeat IPC: 0.274454 cumulative IPC: 0.223763 (Simulation time: 2 hr 39 min 21 sec) 
Heartbeat CPU 0 instructions: 82000000 cycles: 326528453 heartbeat IPC: 0.274131 cumulative IPC: 0.224335 (Simulation time: 2 hr 40 min 35 sec) 
Heartbeat CPU 0 instructions: 83000003 cycles: 330204932 heartbeat IPC: 0.272 cumulative IPC: 0.224875 (Simulation time: 2 hr 41 min 48 sec) 
Heartbeat CPU 0 instructions: 84000000 cycles: 333858629 heartbeat IPC: 0.273695 cumulative IPC: 0.225418 (Simulation time: 2 hr 43 min 1 sec) 
Heartbeat CPU 0 instructions: 85000000 cycles: 337497278 heartbeat IPC: 0.274827 cumulative IPC: 0.22596 (Simulation time: 2 hr 44 min 10 sec) 
Heartbeat CPU 0 instructions: 86000001 cycles: 341138741 heartbeat IPC: 0.274615 cumulative IPC: 0.226488 (Simulation time: 2 hr 45 min 18 sec) 
Heartbeat CPU 0 instructions: 87000001 cycles: 344789521 heartbeat IPC: 0.273914 cumulative IPC: 0.226998 (Simulation time: 2 hr 46 min 27 sec) 
Heartbeat CPU 0 instructions: 88000000 cycles: 348425575 heartbeat IPC: 0.275023 cumulative IPC: 0.227508 (Simulation time: 2 hr 47 min 34 sec) 
Heartbeat CPU 0 instructions: 89000003 cycles: 352066434 heartbeat IPC: 0.274661 cumulative IPC: 0.228003 (Simulation time: 2 hr 48 min 40 sec) 
Heartbeat CPU 0 instructions: 90000000 cycles: 355708200 heartbeat IPC: 0.274591 cumulative IPC: 0.228488 (Simulation time: 2 hr 49 min 41 sec) 
Heartbeat CPU 0 instructions: 91000000 cycles: 359337882 heartbeat IPC: 0.275506 cumulative IPC: 0.22897 (Simulation time: 2 hr 50 min 43 sec) 
Heartbeat CPU 0 instructions: 92000000 cycles: 362941171 heartbeat IPC: 0.277524 cumulative IPC: 0.22946 (Simulation time: 2 hr 51 min 34 sec) 
Heartbeat CPU 0 instructions: 93000001 cycles: 366539667 heartbeat IPC: 0.277894 cumulative IPC: 0.229943 (Simulation time: 2 hr 52 min 31 sec) 
Heartbeat CPU 0 instructions: 94000003 cycles: 370135126 heartbeat IPC: 0.278129 cumulative IPC: 0.230418 (Simulation time: 2 hr 53 min 18 sec) 
Heartbeat CPU 0 instructions: 95000002 cycles: 373727103 heartbeat IPC: 0.278398 cumulative IPC: 0.230886 (Simulation time: 2 hr 54 min 3 sec) 
Heartbeat CPU 0 instructions: 96000000 cycles: 377312257 heartbeat IPC: 0.278927 cumulative IPC: 0.231349 (Simulation time: 2 hr 54 min 43 sec) 
Heartbeat CPU 0 instructions: 97000000 cycles: 380893555 heartbeat IPC: 0.279228 cumulative IPC: 0.231806 (Simulation time: 2 hr 55 min 21 sec) 
Heartbeat CPU 0 instructions: 98000000 cycles: 384481099 heartbeat IPC: 0.278742 cumulative IPC: 0.232251 (Simulation time: 2 hr 55 min 56 sec) 
Heartbeat CPU 0 instructions: 99000000 cycles: 388084480 heartbeat IPC: 0.277517 cumulative IPC: 0.232677 (Simulation time: 2 hr 56 min 30 sec) 
Heartbeat CPU 0 instructions: 100000000 cycles: 391737931 heartbeat IPC: 0.273714 cumulative IPC: 0.233065 (Simulation time: 2 hr 57 min 2 sec) 
Heartbeat CPU 0 instructions: 101000000 cycles: 395376378 heartbeat IPC: 0.274843 cumulative IPC: 0.233455 (Simulation time: 2 hr 57 min 34 sec) 
Heartbeat CPU 0 instructions: 102000000 cycles: 399638136 heartbeat IPC: 0.234645 cumulative IPC: 0.233468 (Simulation time: 2 hr 58 min 4 sec) 
Heartbeat CPU 0 instructions: 103000002 cycles: 404214810 heartbeat IPC: 0.2185 cumulative IPC: 0.233296 (Simulation time: 2 hr 58 min 32 sec) 
Heartbeat CPU 0 instructions: 104000000 cycles: 408546840 heartbeat IPC: 0.230838 cumulative IPC: 0.23327 (Simulation time: 2 hr 58 min 59 sec) 
Heartbeat CPU 0 instructions: 105000000 cycles: 412756062 heartbeat IPC: 0.237574 cumulative IPC: 0.233314 (Simulation time: 2 hr 59 min 28 sec) 
Heartbeat CPU 0 instructions: 106000002 cycles: 416951684 heartbeat IPC: 0.238344 cumulative IPC: 0.233366 (Simulation time: 2 hr 59 min 47 sec) 
Heartbeat CPU 0 instructions: 107000000 cycles: 421182811 heartbeat IPC: 0.236343 cumulative IPC: 0.233396 (Simulation time: 3 hr 0 min 8 sec) 
Heartbeat CPU 0 instructions: 108000000 cycles: 425302091 heartbeat IPC: 0.242761 cumulative IPC: 0.233488 (Simulation time: 3 hr 0 min 27 sec) 
Heartbeat CPU 0 instructions: 109000000 cycles: 429406213 heartbeat IPC: 0.243657 cumulative IPC: 0.233586 (Simulation time: 3 hr 0 min 45 sec) 
Heartbeat CPU 0 instructions: 110000002 cycles: 433522294 heartbeat IPC: 0.24295 cumulative IPC: 0.233676 (Simulation time: 3 hr 1 min 0 sec) 
Finished CPU 0 instructions: 100000001 cycles: 427942285 cummulative IPC: 0.233676 (Simulation time: 3 hr 1 min 0 sec) 

ChampSim completed all CPUs

Region of Interest Statistics

CPU 0 cummulative IPC: 0.233676 instructions: 100000001 cycles: 427942285
LLC TOTAL     ACCESS:    1984079  HIT:      93596  MISS:    1890483
LLC LOAD      ACCESS:    1160615  HIT:      49775  MISS:    1110840
LLC RFO       ACCESS:     340550  HIT:      10566  MISS:     329984
LLC PREFETCH  ACCESS:          0  HIT:          0  MISS:          0
LLC WRITEBACK ACCESS:     482914  HIT:      33255  MISS:     449659
