
*** ChampSim Multicore Out-of-Order Simulator ***

Warmup Instructions: 10000000
Simulation Instructions: 100000000
Configuration: 1
Number of CPUs: 1
LLC sets: 2048
LLC ways: 16
Off-chip DRAM Channels: 1 Width: 64-bit Data Rate: 1600 MT/s

CPU 0 runs /datasets/cs240c-wi22-a00-public/data/Assignment2-gz/lbm_1004B.trace.gz
config 1, num_core 1, llc_sets 2048
Heartbeat CPU 0 instructions: 1000002 cycles: 391495 heartbeat IPC: 2.55432 cumulative IPC: 2.55432 (Simulation time: 0 hr 1 min 22 sec) 
Heartbeat CPU 0 instructions: 2000001 cycles: 782981 heartbeat IPC: 2.55437 cumulative IPC: 2.55434 (Simulation time: 0 hr 2 min 39 sec) 
Heartbeat CPU 0 instructions: 3000001 cycles: 1174398 heartbeat IPC: 2.55482 cumulative IPC: 2.5545 (Simulation time: 0 hr 3 min 56 sec) 
Heartbeat CPU 0 instructions: 4000000 cycles: 1570639 heartbeat IPC: 2.52371 cumulative IPC: 2.54673 (Simulation time: 0 hr 5 min 13 sec) 
Heartbeat CPU 0 instructions: 5000002 cycles: 1962096 heartbeat IPC: 2.55456 cumulative IPC: 2.5483 (Simulation time: 0 hr 6 min 35 sec) 
Heartbeat CPU 0 instructions: 6000002 cycles: 2353538 heartbeat IPC: 2.55466 cumulative IPC: 2.54935 (Simulation time: 0 hr 7 min 53 sec) 
Heartbeat CPU 0 instructions: 7000003 cycles: 2749726 heartbeat IPC: 2.52406 cumulative IPC: 2.54571 (Simulation time: 0 hr 9 min 13 sec) 
Heartbeat CPU 0 instructions: 8000000 cycles: 3141188 heartbeat IPC: 2.55452 cumulative IPC: 2.54681 (Simulation time: 0 hr 10 min 34 sec) 
Heartbeat CPU 0 instructions: 9000003 cycles: 3532672 heartbeat IPC: 2.55439 cumulative IPC: 2.54765 (Simulation time: 0 hr 11 min 51 sec) 
Heartbeat CPU 0 instructions: 10000000 cycles: 3924126 heartbeat IPC: 2.55457 cumulative IPC: 2.54834 (Simulation time: 0 hr 13 min 9 sec) 

Warmup complete CPU 0 instructions: 10000004 cycles: 3924127 (Simulation time: 0 hr 13 min 9 sec) 

Heartbeat CPU 0 instructions: 11000000 cycles: 5725133 heartbeat IPC: 0.555245 cumulative IPC: 0.555243 (Simulation time: 0 hr 14 min 49 sec) 
Heartbeat CPU 0 instructions: 12000000 cycles: 7454041 heartbeat IPC: 0.5784 cumulative IPC: 0.566585 (Simulation time: 0 hr 16 min 29 sec) 
Heartbeat CPU 0 instructions: 13000002 cycles: 9171324 heartbeat IPC: 0.582316 cumulative IPC: 0.571733 (Simulation time: 0 hr 18 min 10 sec) 
Heartbeat CPU 0 instructions: 14000003 cycles: 10931338 heartbeat IPC: 0.568178 cumulative IPC: 0.57084 (Simulation time: 0 hr 19 min 54 sec) 
Heartbeat CPU 0 instructions: 15000003 cycles: 12656340 heartbeat IPC: 0.579709 cumulative IPC: 0.572592 (Simulation time: 0 hr 21 min 33 sec) 
Heartbeat CPU 0 instructions: 16000000 cycles: 14375549 heartbeat IPC: 0.581661 cumulative IPC: 0.574084 (Simulation time: 0 hr 23 min 12 sec) 
Heartbeat CPU 0 instructions: 17000000 cycles: 16163510 heartbeat IPC: 0.559296 cumulative IPC: 0.571924 (Simulation time: 0 hr 24 min 54 sec) 
Heartbeat CPU 0 instructions: 18000002 cycles: 17865445 heartbeat IPC: 0.587568 cumulative IPC: 0.573834 (Simulation time: 0 hr 26 min 32 sec) 
Heartbeat CPU 0 instructions: 19000002 cycles: 19583052 heartbeat IPC: 0.582205 cumulative IPC: 0.574752 (Simulation time: 0 hr 28 min 13 sec) 
Heartbeat CPU 0 instructions: 20000000 cycles: 21273118 heartbeat IPC: 0.591692 cumulative IPC: 0.576402 (Simulation time: 0 hr 29 min 53 sec) 
Heartbeat CPU 0 instructions: 21000003 cycles: 23019543 heartbeat IPC: 0.5726 cumulative IPC: 0.576054 (Simulation time: 0 hr 31 min 34 sec) 
Heartbeat CPU 0 instructions: 22000002 cycles: 24714858 heartbeat IPC: 0.58986 cumulative IPC: 0.57718 (Simulation time: 0 hr 33 min 14 sec) 
Heartbeat CPU 0 instructions: 23000000 cycles: 26372160 heartbeat IPC: 0.603389 cumulative IPC: 0.579115 (Simulation time: 0 hr 34 min 51 sec) 
Heartbeat CPU 0 instructions: 24000000 cycles: 28090359 heartbeat IPC: 0.582005 cumulative IPC: 0.579321 (Simulation time: 0 hr 36 min 29 sec) 
Heartbeat CPU 0 instructions: 25000003 cycles: 29749241 heartbeat IPC: 0.602817 cumulative IPC: 0.58083 (Simulation time: 0 hr 38 min 7 sec) 
Heartbeat CPU 0 instructions: 26000003 cycles: 31364541 heartbeat IPC: 0.61908 cumulative IPC: 0.583082 (Simulation time: 0 hr 39 min 40 sec) 
Heartbeat CPU 0 instructions: 27000001 cycles: 32928946 heartbeat IPC: 0.639219 cumulative IPC: 0.586109 (Simulation time: 0 hr 41 min 14 sec) 
Heartbeat CPU 0 instructions: 28000000 cycles: 34549618 heartbeat IPC: 0.617027 cumulative IPC: 0.587746 (Simulation time: 0 hr 42 min 46 sec) 
Heartbeat CPU 0 instructions: 29000000 cycles: 36135514 heartbeat IPC: 0.630558 cumulative IPC: 0.589853 (Simulation time: 0 hr 44 min 19 sec) 
Heartbeat CPU 0 instructions: 30000003 cycles: 37736690 heartbeat IPC: 0.624543 cumulative IPC: 0.591496 (Simulation time: 0 hr 45 min 54 sec) 
Heartbeat CPU 0 instructions: 31000001 cycles: 39381612 heartbeat IPC: 0.60793 cumulative IPC: 0.592259 (Simulation time: 0 hr 47 min 29 sec) 
Heartbeat CPU 0 instructions: 32000000 cycles: 40963009 heartbeat IPC: 0.632352 cumulative IPC: 0.59397 (Simulation time: 0 hr 49 min 1 sec) 
Heartbeat CPU 0 instructions: 33000000 cycles: 42573452 heartbeat IPC: 0.620947 cumulative IPC: 0.595094 (Simulation time: 0 hr 50 min 40 sec) 
Heartbeat CPU 0 instructions: 34000002 cycles: 44257159 heartbeat IPC: 0.593929 cumulative IPC: 0.595046 (Simulation time: 0 hr 52 min 23 sec) 
Heartbeat CPU 0 instructions: 35000001 cycles: 45860243 heartbeat IPC: 0.623797 cumulative IPC: 0.596145 (Simulation time: 0 hr 54 min 1 sec) 
Heartbeat CPU 0 instructions: 36000000 cycles: 47477521 heartbeat IPC: 0.618322 cumulative IPC: 0.596968 (Simulation time: 0 hr 55 min 41 sec) 
Heartbeat CPU 0 instructions: 37000002 cycles: 49087819 heartbeat IPC: 0.621004 cumulative IPC: 0.597825 (Simulation time: 0 hr 57 min 24 sec) 
Heartbeat CPU 0 instructions: 38000000 cycles: 50731043 heartbeat IPC: 0.608559 cumulative IPC: 0.598202 (Simulation time: 0 hr 59 min 2 sec) 
Heartbeat CPU 0 instructions: 39000003 cycles: 52345557 heartbeat IPC: 0.619383 cumulative IPC: 0.598908 (Simulation time: 1 hr 0 min 34 sec) 
Heartbeat CPU 0 instructions: 40000000 cycles: 53941494 heartbeat IPC: 0.626589 cumulative IPC: 0.599792 (Simulation time: 1 hr 2 min 10 sec) 
Heartbeat CPU 0 instructions: 41000002 cycles: 55595337 heartbeat IPC: 0.604654 cumulative IPC: 0.599947 (Simulation time: 1 hr 3 min 44 sec) 
Heartbeat CPU 0 instructions: 42000000 cycles: 57211277 heartbeat IPC: 0.618834 cumulative IPC: 0.60052 (Simulation time: 1 hr 5 min 14 sec) 
Heartbeat CPU 0 instructions: 43000000 cycles: 58825836 heartbeat IPC: 0.619364 cumulative IPC: 0.601074 (Simulation time: 1 hr 6 min 50 sec) 
Heartbeat CPU 0 instructions: 44000000 cycles: 60508279 heartbeat IPC: 0.594374 cumulative IPC: 0.600875 (Simulation time: 1 hr 8 min 27 sec) 
Heartbeat CPU 0 instructions: 45000000 cycles: 62116549 heartbeat IPC: 0.621786 cumulative IPC: 0.601453 (Simulation time: 1 hr 10 min 1 sec) 
Heartbeat CPU 0 instructions: 46000003 cycles: 63734966 heartbeat IPC: 0.61789 cumulative IPC: 0.601898 (Simulation time: 1 hr 11 min 33 sec) 
Heartbeat CPU 0 instructions: 47000002 cycles: 65358409 heartbeat IPC: 0.615974 cumulative IPC: 0.60227 (Simulation time: 1 hr 13 min 3 sec) 
Heartbeat CPU 0 instructions: 48000000 cycles: 67015748 heartbeat IPC: 0.603376 cumulative IPC: 0.602299 (Simulation time: 1 hr 14 min 38 sec) 
Heartbeat CPU 0 instructions: 49000000 cycles: 68601343 heartbeat IPC: 0.630678 cumulative IPC: 0.602994 (Simulation time: 1 hr 16 min 14 sec) 
Heartbeat CPU 0 instructions: 50000003 cycles: 70216672 heartbeat IPC: 0.619071 cumulative IPC: 0.603386 (Simulation time: 1 hr 17 min 46 sec) 
Heartbeat CPU 0 instructions: 51000001 cycles: 71863284 heartbeat IPC: 0.607306 cumulative IPC: 0.603481 (Simulation time: 1 hr 19 min 20 sec) 
Heartbeat CPU 0 instructions: 52000000 cycles: 73464294 heartbeat IPC: 0.624605 cumulative IPC: 0.603967 (Simulation time: 1 hr 20 min 58 sec) 
Heartbeat CPU 0 instructions: 53000002 cycles: 75081353 heartbeat IPC: 0.618408 cumulative IPC: 0.604296 (Simulation time: 1 hr 22 min 35 sec) 
Heartbeat CPU 0 instructions: 54000000 cycles: 76709104 heartbeat IPC: 0.614343 cumulative IPC: 0.60452 (Simulation time: 1 hr 24 min 14 sec) 
Heartbeat CPU 0 instructions: 55000000 cycles: 78368117 heartbeat IPC: 0.602768 cumulative IPC: 0.604481 (Simulation time: 1 hr 25 min 50 sec) 
Heartbeat CPU 0 instructions: 56000000 cycles: 79990544 heartbeat IPC: 0.616361 cumulative IPC: 0.604735 (Simulation time: 1 hr 27 min 28 sec) 
Heartbeat CPU 0 instructions: 57000003 cycles: 81572479 heartbeat IPC: 0.632139 cumulative IPC: 0.605293 (Simulation time: 1 hr 29 min 3 sec) 
Heartbeat CPU 0 instructions: 58000003 cycles: 83227978 heartbeat IPC: 0.604047 cumulative IPC: 0.605267 (Simulation time: 1 hr 30 min 32 sec) 
Heartbeat CPU 0 instructions: 59000002 cycles: 84854958 heartbeat IPC: 0.614635 cumulative IPC: 0.605455 (Simulation time: 1 hr 32 min 6 sec) 
Heartbeat CPU 0 instructions: 60000000 cycles: 86458374 heartbeat IPC: 0.623667 cumulative IPC: 0.605809 (Simulation time: 1 hr 33 min 44 sec) 
Heartbeat CPU 0 instructions: 61000003 cycles: 88108885 heartbeat IPC: 0.605875 cumulative IPC: 0.60581 (Simulation time: 1 hr 35 min 22 sec) 
Heartbeat CPU 0 instructions: 62000001 cycles: 89713651 heartbeat IPC: 0.623143 cumulative IPC: 0.606135 (Simulation time: 1 hr 36 min 55 sec) 
Heartbeat CPU 0 instructions: 63000001 cycles: 91304375 heartbeat IPC: 0.628645 cumulative IPC: 0.606544 (Simulation time: 1 hr 38 min 30 sec) 
Heartbeat CPU 0 instructions: 64000000 cycles: 92933087 heartbeat IPC: 0.613981 cumulative IPC: 0.60668 (Simulation time: 1 hr 40 min 7 sec) 
Heartbeat CPU 0 instructions: 65000000 cycles: 94585195 heartbeat IPC: 0.605287 cumulative IPC: 0.606655 (Simulation time: 1 hr 41 min 42 sec) 
Heartbeat CPU 0 instructions: 66000002 cycles: 96185806 heartbeat IPC: 0.624763 cumulative IPC: 0.606969 (Simulation time: 1 hr 43 min 21 sec) 
Heartbeat CPU 0 instructions: 67000000 cycles: 97806073 heartbeat IPC: 0.617181 cumulative IPC: 0.607145 (Simulation time: 1 hr 44 min 59 sec) 
Heartbeat CPU 0 instructions: 68000000 cycles: 99460907 heartbeat IPC: 0.60429 cumulative IPC: 0.607096 (Simulation time: 1 hr 46 min 36 sec) 
Heartbeat CPU 0 instructions: 69000000 cycles: 101064439 heartbeat IPC: 0.623623 cumulative IPC: 0.607369 (Simulation time: 1 hr 48 min 18 sec) 
Heartbeat CPU 0 instructions: 70000000 cycles: 102655210 heartbeat IPC: 0.628626 cumulative IPC: 0.607711 (Simulation time: 1 hr 49 min 58 sec) 
Heartbeat CPU 0 instructions: 71000002 cycles: 104315133 heartbeat IPC: 0.602439 cumulative IPC: 0.607624 (Simulation time: 1 hr 51 min 58 sec) 
Heartbeat CPU 0 instructions: 72000000 cycles: 106865594 heartbeat IPC: 0.392085 cumulative IPC: 0.602284 (Simulation time: 1 hr 54 min 24 sec) 
Heartbeat CPU 0 instructions: 73000002 cycles: 110304695 heartbeat IPC: 0.290774 cumulative IPC: 0.592213 (Simulation time: 1 hr 57 min 10 sec) 
Heartbeat CPU 0 instructions: 74000002 cycles: 116961880 heartbeat IPC: 0.150214 cumulative IPC: 0.566182 (Simulation time: 2 hr 1 min 22 sec) 
Heartbeat CPU 0 instructions: 75000003 cycles: 119706567 heartbeat IPC: 0.364341 cumulative IPC: 0.561398 (Simulation time: 2 hr 3 min 42 sec) 
Heartbeat CPU 0 instructions: 76000000 cycles: 122071750 heartbeat IPC: 0.422799 cumulative IPC: 0.558623 (Simulation time: 2 hr 6 min 2 sec) 
Heartbeat CPU 0 instructions: 77000002 cycles: 123808696 heartbeat IPC: 0.575724 cumulative IPC: 0.558871 (Simulation time: 2 hr 7 min 50 sec) 
Heartbeat CPU 0 instructions: 78000002 cycles: 125517248 heartbeat IPC: 0.585291 cumulative IPC: 0.559242 (Simulation time: 2 hr 9 min 34 sec) 
Heartbeat CPU 0 instructions: 79000000 cycles: 127270652 heartbeat IPC: 0.570318 cumulative IPC: 0.5594 (Simulation time: 2 hr 11 min 24 sec) 
Heartbeat CPU 0 instructions: 80000000 cycles: 129021908 heartbeat IPC: 0.571019 cumulative IPC: 0.559562 (Simulation time: 2 hr 13 min 12 sec) 
Heartbeat CPU 0 instructions: 81000001 cycles: 130747264 heartbeat IPC: 0.579591 cumulative IPC: 0.559835 (Simulation time: 2 hr 15 min 5 sec) 
Heartbeat CPU 0 instructions: 82000002 cycles: 132459779 heartbeat IPC: 0.583937 cumulative IPC: 0.560156 (Simulation time: 2 hr 16 min 49 sec) 
Heartbeat CPU 0 instructions: 83000003 cycles: 134227393 heartbeat IPC: 0.565735 cumulative IPC: 0.560232 (Simulation time: 2 hr 18 min 34 sec) 
Heartbeat CPU 0 instructions: 84000000 cycles: 135943176 heartbeat IPC: 0.582823 cumulative IPC: 0.560525 (Simulation time: 2 hr 20 min 28 sec) 
Heartbeat CPU 0 instructions: 85000000 cycles: 137666962 heartbeat IPC: 0.580118 cumulative IPC: 0.560778 (Simulation time: 2 hr 22 min 14 sec) 
Heartbeat CPU 0 instructions: 86000000 cycles: 139469378 heartbeat IPC: 0.554811 cumulative IPC: 0.560698 (Simulation time: 2 hr 23 min 59 sec) 
Heartbeat CPU 0 instructions: 87000002 cycles: 141172431 heartbeat IPC: 0.587182 cumulative IPC: 0.561027 (Simulation time: 2 hr 25 min 37 sec) 
Heartbeat CPU 0 instructions: 88000000 cycles: 142871153 heartbeat IPC: 0.588677 cumulative IPC: 0.561365 (Simulation time: 2 hr 27 min 12 sec) 
Heartbeat CPU 0 instructions: 89000003 cycles: 144594904 heartbeat IPC: 0.580132 cumulative IPC: 0.561595 (Simulation time: 2 hr 28 min 46 sec) 
Heartbeat CPU 0 instructions: 90000001 cycles: 146350543 heartbeat IPC: 0.569592 cumulative IPC: 0.561694 (Simulation time: 2 hr 30 min 6 sec) 
Heartbeat CPU 0 instructions: 91000001 cycles: 148085723 heartbeat IPC: 0.576309 cumulative IPC: 0.561869 (Simulation time: 2 hr 31 min 29 sec) 
Heartbeat CPU 0 instructions: 92000000 cycles: 149773006 heartbeat IPC: 0.592668 cumulative IPC: 0.562226 (Simulation time: 2 hr 32 min 44 sec) 
Heartbeat CPU 0 instructions: 93000003 cycles: 151508186 heartbeat IPC: 0.576311 cumulative IPC: 0.562391 (Simulation time: 2 hr 34 min 3 sec) 
Heartbeat CPU 0 instructions: 94000003 cycles: 153177975 heartbeat IPC: 0.598878 cumulative IPC: 0.5628 (Simulation time: 2 hr 35 min 20 sec) 
Heartbeat CPU 0 instructions: 95000003 cycles: 154838565 heartbeat IPC: 0.602196 cumulative IPC: 0.563233 (Simulation time: 2 hr 36 min 23 sec) 
Heartbeat CPU 0 instructions: 96000000 cycles: 156534243 heartbeat IPC: 0.589733 cumulative IPC: 0.563527 (Simulation time: 2 hr 37 min 28 sec) 
Heartbeat CPU 0 instructions: 97000002 cycles: 158170080 heartbeat IPC: 0.611309 cumulative IPC: 0.564034 (Simulation time: 2 hr 38 min 33 sec) 
Heartbeat CPU 0 instructions: 98000001 cycles: 159796623 heartbeat IPC: 0.6148 cumulative IPC: 0.564564 (Simulation time: 2 hr 39 min 41 sec) 
Heartbeat CPU 0 instructions: 99000000 cycles: 161419634 heartbeat IPC: 0.616138 cumulative IPC: 0.565095 (Simulation time: 2 hr 40 min 40 sec) 
Heartbeat CPU 0 instructions: 100000000 cycles: 163100082 heartbeat IPC: 0.595079 cumulative IPC: 0.565412 (Simulation time: 2 hr 41 min 37 sec) 
Heartbeat CPU 0 instructions: 101000000 cycles: 164725659 heartbeat IPC: 0.615166 cumulative IPC: 0.565915 (Simulation time: 2 hr 42 min 33 sec) 
Heartbeat CPU 0 instructions: 102000002 cycles: 166345676 heartbeat IPC: 0.617279 cumulative IPC: 0.566427 (Simulation time: 2 hr 43 min 34 sec) 
Heartbeat CPU 0 instructions: 103000001 cycles: 168024307 heartbeat IPC: 0.595723 cumulative IPC: 0.566727 (Simulation time: 2 hr 44 min 32 sec) 
Heartbeat CPU 0 instructions: 104000000 cycles: 169662688 heartbeat IPC: 0.610358 cumulative IPC: 0.567158 (Simulation time: 2 hr 45 min 30 sec) 
Heartbeat CPU 0 instructions: 105000001 cycles: 171294501 heartbeat IPC: 0.612816 cumulative IPC: 0.567603 (Simulation time: 2 hr 46 min 29 sec) 
Heartbeat CPU 0 instructions: 106000000 cycles: 172914694 heartbeat IPC: 0.61721 cumulative IPC: 0.568079 (Simulation time: 2 hr 47 min 16 sec) 
Heartbeat CPU 0 instructions: 107000000 cycles: 174616491 heartbeat IPC: 0.587614 cumulative IPC: 0.568274 (Simulation time: 2 hr 48 min 9 sec) 
Heartbeat CPU 0 instructions: 108000000 cycles: 176282199 heartbeat IPC: 0.600345 cumulative IPC: 0.568584 (Simulation time: 2 hr 48 min 57 sec) 
Heartbeat CPU 0 instructions: 109000003 cycles: 177904247 heartbeat IPC: 0.616506 cumulative IPC: 0.569031 (Simulation time: 2 hr 49 min 52 sec) 
Heartbeat CPU 0 instructions: 110000001 cycles: 179571346 heartbeat IPC: 0.599843 cumulative IPC: 0.569323 (Simulation time: 2 hr 50 min 40 sec) 
Finished CPU 0 instructions: 100000001 cycles: 175647220 cummulative IPC: 0.569323 (Simulation time: 2 hr 50 min 40 sec) 

ChampSim completed all CPUs

Region of Interest Statistics

CPU 0 cummulative IPC: 0.569323 instructions: 100000001 cycles: 175647220
LLC TOTAL     ACCESS:    5752312  HIT:     785319  MISS:    4966993
LLC LOAD      ACCESS:     806178  HIT:         58  MISS:     806120
LLC RFO       ACCESS:    2473064  HIT:     284236  MISS:    2188828
LLC PREFETCH  ACCESS:          0  HIT:          0  MISS:          0
LLC WRITEBACK ACCESS:    2473070  HIT:     501025  MISS:    1972045
