
*** ChampSim Multicore Out-of-Order Simulator ***

Warmup Instructions: 10000000
Simulation Instructions: 100000000
Configuration: 1
Number of CPUs: 1
LLC sets: 2048
LLC ways: 16
Off-chip DRAM Channels: 1 Width: 64-bit Data Rate: 1600 MT/s

CPU 0 runs /datasets/cs240c-wi22-a00-public/data/Assignment2-gz/wrf_1650B.trace.gz
config 1, num_core 1, llc_sets 2048
Heartbeat CPU 0 instructions: 1000000 cycles: 514412 heartbeat IPC: 1.94397 cumulative IPC: 1.94397 (Simulation time: 0 hr 1 min 25 sec) 
Heartbeat CPU 0 instructions: 2000000 cycles: 1028660 heartbeat IPC: 1.94459 cumulative IPC: 1.94428 (Simulation time: 0 hr 2 min 51 sec) 
Heartbeat CPU 0 instructions: 3000001 cycles: 1546521 heartbeat IPC: 1.93102 cumulative IPC: 1.93984 (Simulation time: 0 hr 4 min 12 sec) 
Heartbeat CPU 0 instructions: 4000000 cycles: 2064469 heartbeat IPC: 1.93069 cumulative IPC: 1.93754 (Simulation time: 0 hr 5 min 34 sec) 
Heartbeat CPU 0 instructions: 5000001 cycles: 2582394 heartbeat IPC: 1.93078 cumulative IPC: 1.93619 (Simulation time: 0 hr 7 min 2 sec) 
Heartbeat CPU 0 instructions: 6000003 cycles: 3100401 heartbeat IPC: 1.93048 cumulative IPC: 1.93523 (Simulation time: 0 hr 8 min 21 sec) 
Heartbeat CPU 0 instructions: 7000000 cycles: 3618273 heartbeat IPC: 1.93097 cumulative IPC: 1.93462 (Simulation time: 0 hr 9 min 43 sec) 
Heartbeat CPU 0 instructions: 8000000 cycles: 4136216 heartbeat IPC: 1.93071 cumulative IPC: 1.93413 (Simulation time: 0 hr 11 min 6 sec) 
Heartbeat CPU 0 instructions: 9000001 cycles: 4650579 heartbeat IPC: 1.94415 cumulative IPC: 1.93524 (Simulation time: 0 hr 12 min 29 sec) 
Heartbeat CPU 0 instructions: 10000001 cycles: 5164794 heartbeat IPC: 1.94471 cumulative IPC: 1.93619 (Simulation time: 0 hr 13 min 54 sec) 

Warmup complete CPU 0 instructions: 10000001 cycles: 5164794 (Simulation time: 0 hr 13 min 54 sec) 

Heartbeat CPU 0 instructions: 11000000 cycles: 6787829 heartbeat IPC: 0.616129 cumulative IPC: 0.616129 (Simulation time: 0 hr 15 min 39 sec) 
Heartbeat CPU 0 instructions: 12000000 cycles: 8422712 heartbeat IPC: 0.611665 cumulative IPC: 0.613889 (Simulation time: 0 hr 17 min 25 sec) 
Heartbeat CPU 0 instructions: 13000002 cycles: 10066106 heartbeat IPC: 0.608498 cumulative IPC: 0.612081 (Simulation time: 0 hr 19 min 16 sec) 
Heartbeat CPU 0 instructions: 14000002 cycles: 11697562 heartbeat IPC: 0.612949 cumulative IPC: 0.612298 (Simulation time: 0 hr 21 min 6 sec) 
Heartbeat CPU 0 instructions: 15000001 cycles: 13318121 heartbeat IPC: 0.61707 cumulative IPC: 0.613247 (Simulation time: 0 hr 22 min 57 sec) 
Heartbeat CPU 0 instructions: 16000000 cycles: 14953236 heartbeat IPC: 0.611577 cumulative IPC: 0.612968 (Simulation time: 0 hr 24 min 48 sec) 
Heartbeat CPU 0 instructions: 17000000 cycles: 16594821 heartbeat IPC: 0.609167 cumulative IPC: 0.612422 (Simulation time: 0 hr 26 min 38 sec) 
Heartbeat CPU 0 instructions: 18000001 cycles: 18225256 heartbeat IPC: 0.613334 cumulative IPC: 0.612536 (Simulation time: 0 hr 28 min 23 sec) 
Heartbeat CPU 0 instructions: 19000003 cycles: 19849363 heartbeat IPC: 0.615724 cumulative IPC: 0.612888 (Simulation time: 0 hr 30 min 15 sec) 
Heartbeat CPU 0 instructions: 20000000 cycles: 21472022 heartbeat IPC: 0.616271 cumulative IPC: 0.613225 (Simulation time: 0 hr 32 min 3 sec) 
Heartbeat CPU 0 instructions: 21000000 cycles: 23110054 heartbeat IPC: 0.610489 cumulative IPC: 0.612975 (Simulation time: 0 hr 33 min 49 sec) 
Heartbeat CPU 0 instructions: 22000000 cycles: 24742115 heartbeat IPC: 0.612722 cumulative IPC: 0.612954 (Simulation time: 0 hr 35 min 38 sec) 
Heartbeat CPU 0 instructions: 23000003 cycles: 26380656 heartbeat IPC: 0.610301 cumulative IPC: 0.612749 (Simulation time: 0 hr 37 min 29 sec) 
Heartbeat CPU 0 instructions: 24000000 cycles: 28026245 heartbeat IPC: 0.607683 cumulative IPC: 0.612385 (Simulation time: 0 hr 39 min 15 sec) 
Heartbeat CPU 0 instructions: 25000000 cycles: 29667343 heartbeat IPC: 0.609348 cumulative IPC: 0.612181 (Simulation time: 0 hr 41 min 3 sec) 
Heartbeat CPU 0 instructions: 26000001 cycles: 31309620 heartbeat IPC: 0.608911 cumulative IPC: 0.611976 (Simulation time: 0 hr 42 min 51 sec) 
Heartbeat CPU 0 instructions: 27000003 cycles: 32941755 heartbeat IPC: 0.612696 cumulative IPC: 0.612018 (Simulation time: 0 hr 44 min 40 sec) 
Heartbeat CPU 0 instructions: 28000000 cycles: 34562286 heartbeat IPC: 0.61708 cumulative IPC: 0.612297 (Simulation time: 0 hr 46 min 27 sec) 
Heartbeat CPU 0 instructions: 29000001 cycles: 36180984 heartbeat IPC: 0.617781 cumulative IPC: 0.612583 (Simulation time: 0 hr 48 min 12 sec) 
Heartbeat CPU 0 instructions: 30000001 cycles: 37793808 heartbeat IPC: 0.62003 cumulative IPC: 0.612951 (Simulation time: 0 hr 50 min 0 sec) 
Heartbeat CPU 0 instructions: 31000000 cycles: 39435992 heartbeat IPC: 0.608945 cumulative IPC: 0.612759 (Simulation time: 0 hr 51 min 49 sec) 
Heartbeat CPU 0 instructions: 32000000 cycles: 41065913 heartbeat IPC: 0.613527 cumulative IPC: 0.612794 (Simulation time: 0 hr 53 min 35 sec) 
Heartbeat CPU 0 instructions: 33000001 cycles: 42701591 heartbeat IPC: 0.611368 cumulative IPC: 0.612732 (Simulation time: 0 hr 55 min 19 sec) 
Heartbeat CPU 0 instructions: 34000002 cycles: 44322797 heartbeat IPC: 0.616825 cumulative IPC: 0.612902 (Simulation time: 0 hr 57 min 5 sec) 
Heartbeat CPU 0 instructions: 35000001 cycles: 45972539 heartbeat IPC: 0.606155 cumulative IPC: 0.612629 (Simulation time: 0 hr 58 min 49 sec) 
Heartbeat CPU 0 instructions: 36000000 cycles: 47617855 heartbeat IPC: 0.607785 cumulative IPC: 0.612441 (Simulation time: 1 hr 0 min 34 sec) 
Heartbeat CPU 0 instructions: 37000003 cycles: 49245197 heartbeat IPC: 0.614501 cumulative IPC: 0.612517 (Simulation time: 1 hr 2 min 20 sec) 
Heartbeat CPU 0 instructions: 38000000 cycles: 50874422 heartbeat IPC: 0.613787 cumulative IPC: 0.612562 (Simulation time: 1 hr 4 min 0 sec) 
Heartbeat CPU 0 instructions: 39000001 cycles: 52500156 heartbeat IPC: 0.615107 cumulative IPC: 0.61265 (Simulation time: 1 hr 5 min 42 sec) 
Heartbeat CPU 0 instructions: 40000000 cycles: 54132369 heartbeat IPC: 0.612665 cumulative IPC: 0.61265 (Simulation time: 1 hr 7 min 31 sec) 
Heartbeat CPU 0 instructions: 41000000 cycles: 55760652 heartbeat IPC: 0.614144 cumulative IPC: 0.612698 (Simulation time: 1 hr 9 min 15 sec) 
Heartbeat CPU 0 instructions: 42000001 cycles: 57402743 heartbeat IPC: 0.60898 cumulative IPC: 0.612581 (Simulation time: 1 hr 10 min 59 sec) 
Heartbeat CPU 0 instructions: 43000001 cycles: 59039439 heartbeat IPC: 0.610987 cumulative IPC: 0.612533 (Simulation time: 1 hr 12 min 46 sec) 
Heartbeat CPU 0 instructions: 44000000 cycles: 60672030 heartbeat IPC: 0.612523 cumulative IPC: 0.612533 (Simulation time: 1 hr 14 min 29 sec) 
Heartbeat CPU 0 instructions: 45000000 cycles: 62311236 heartbeat IPC: 0.610051 cumulative IPC: 0.612462 (Simulation time: 1 hr 16 min 13 sec) 
Heartbeat CPU 0 instructions: 46000002 cycles: 64924855 heartbeat IPC: 0.382612 cumulative IPC: 0.602409 (Simulation time: 1 hr 18 min 14 sec) 
Heartbeat CPU 0 instructions: 47000002 cycles: 67116091 heartbeat IPC: 0.456363 cumulative IPC: 0.597243 (Simulation time: 1 hr 20 min 1 sec) 
Heartbeat CPU 0 instructions: 48000000 cycles: 69400663 heartbeat IPC: 0.437718 cumulative IPC: 0.59157 (Simulation time: 1 hr 21 min 55 sec) 
Heartbeat CPU 0 instructions: 49000001 cycles: 71687135 heartbeat IPC: 0.437355 cumulative IPC: 0.586269 (Simulation time: 1 hr 23 min 50 sec) 
Heartbeat CPU 0 instructions: 50000000 cycles: 73977847 heartbeat IPC: 0.436545 cumulative IPC: 0.581285 (Simulation time: 1 hr 25 min 42 sec) 
Heartbeat CPU 0 instructions: 51000000 cycles: 76381003 heartbeat IPC: 0.416119 cumulative IPC: 0.575712 (Simulation time: 1 hr 27 min 37 sec) 
Heartbeat CPU 0 instructions: 52000000 cycles: 78759119 heartbeat IPC: 0.420501 cumulative IPC: 0.570696 (Simulation time: 1 hr 29 min 27 sec) 
Heartbeat CPU 0 instructions: 53000002 cycles: 80406670 heartbeat IPC: 0.606963 cumulative IPC: 0.57149 (Simulation time: 1 hr 31 min 8 sec) 
Heartbeat CPU 0 instructions: 54000002 cycles: 81845595 heartbeat IPC: 0.694963 cumulative IPC: 0.573807 (Simulation time: 1 hr 32 min 46 sec) 
Heartbeat CPU 0 instructions: 55000000 cycles: 83295829 heartbeat IPC: 0.689543 cumulative IPC: 0.575956 (Simulation time: 1 hr 34 min 28 sec) 
Heartbeat CPU 0 instructions: 56000000 cycles: 84708166 heartbeat IPC: 0.708046 cumulative IPC: 0.578301 (Simulation time: 1 hr 36 min 5 sec) 
Heartbeat CPU 0 instructions: 57000001 cycles: 86126185 heartbeat IPC: 0.70521 cumulative IPC: 0.580524 (Simulation time: 1 hr 37 min 46 sec) 
Heartbeat CPU 0 instructions: 58000000 cycles: 87537104 heartbeat IPC: 0.708757 cumulative IPC: 0.58272 (Simulation time: 1 hr 39 min 20 sec) 
Heartbeat CPU 0 instructions: 59000003 cycles: 88947826 heartbeat IPC: 0.708859 cumulative IPC: 0.584844 (Simulation time: 1 hr 40 min 59 sec) 
Heartbeat CPU 0 instructions: 60000000 cycles: 90371385 heartbeat IPC: 0.702463 cumulative IPC: 0.586809 (Simulation time: 1 hr 42 min 36 sec) 
Heartbeat CPU 0 instructions: 61000003 cycles: 92670683 heartbeat IPC: 0.434917 cumulative IPC: 0.582818 (Simulation time: 1 hr 44 min 21 sec) 
Heartbeat CPU 0 instructions: 62000002 cycles: 95396829 heartbeat IPC: 0.366818 cumulative IPC: 0.576292 (Simulation time: 1 hr 46 min 10 sec) 
Heartbeat CPU 0 instructions: 63000002 cycles: 98078572 heartbeat IPC: 0.372892 cumulative IPC: 0.570421 (Simulation time: 1 hr 47 min 55 sec) 
Heartbeat CPU 0 instructions: 64000000 cycles: 100799254 heartbeat IPC: 0.367554 cumulative IPC: 0.56465 (Simulation time: 1 hr 49 min 44 sec) 
Heartbeat CPU 0 instructions: 65000001 cycles: 103501627 heartbeat IPC: 0.370046 cumulative IPC: 0.559302 (Simulation time: 1 hr 51 min 34 sec) 
Heartbeat CPU 0 instructions: 66000003 cycles: 106189277 heartbeat IPC: 0.372073 cumulative IPC: 0.554321 (Simulation time: 1 hr 53 min 20 sec) 
Heartbeat CPU 0 instructions: 67000001 cycles: 108924634 heartbeat IPC: 0.365582 cumulative IPC: 0.549345 (Simulation time: 1 hr 55 min 8 sec) 
Heartbeat CPU 0 instructions: 68000000 cycles: 111666379 heartbeat IPC: 0.364731 cumulative IPC: 0.544593 (Simulation time: 1 hr 56 min 55 sec) 
Heartbeat CPU 0 instructions: 69000002 cycles: 114387589 heartbeat IPC: 0.367484 cumulative IPC: 0.54018 (Simulation time: 1 hr 58 min 42 sec) 
Heartbeat CPU 0 instructions: 70000000 cycles: 117090880 heartbeat IPC: 0.369919 cumulative IPC: 0.536068 (Simulation time: 2 hr 0 min 36 sec) 
Heartbeat CPU 0 instructions: 71000001 cycles: 119788891 heartbeat IPC: 0.370644 cumulative IPC: 0.532174 (Simulation time: 2 hr 2 min 27 sec) 
Heartbeat CPU 0 instructions: 72000000 cycles: 122494351 heartbeat IPC: 0.369623 cumulative IPC: 0.528426 (Simulation time: 2 hr 4 min 28 sec) 
Heartbeat CPU 0 instructions: 73000000 cycles: 125157408 heartbeat IPC: 0.375508 cumulative IPC: 0.525032 (Simulation time: 2 hr 6 min 23 sec) 
Heartbeat CPU 0 instructions: 74000003 cycles: 127849961 heartbeat IPC: 0.371396 cumulative IPC: 0.52166 (Simulation time: 2 hr 8 min 16 sec) 
Heartbeat CPU 0 instructions: 75000003 cycles: 130530483 heartbeat IPC: 0.373062 cumulative IPC: 0.518483 (Simulation time: 2 hr 10 min 16 sec) 
Heartbeat CPU 0 instructions: 76000000 cycles: 133261099 heartbeat IPC: 0.366217 cumulative IPC: 0.515237 (Simulation time: 2 hr 12 min 11 sec) 
Heartbeat CPU 0 instructions: 77000002 cycles: 136022396 heartbeat IPC: 0.362149 cumulative IPC: 0.512007 (Simulation time: 2 hr 14 min 7 sec) 
Heartbeat CPU 0 instructions: 78000001 cycles: 138743897 heartbeat IPC: 0.367444 cumulative IPC: 0.509062 (Simulation time: 2 hr 16 min 4 sec) 
Heartbeat CPU 0 instructions: 79000001 cycles: 141494392 heartbeat IPC: 0.363571 cumulative IPC: 0.506126 (Simulation time: 2 hr 17 min 57 sec) 
Heartbeat CPU 0 instructions: 80000000 cycles: 144223511 heartbeat IPC: 0.366418 cumulative IPC: 0.503384 (Simulation time: 2 hr 19 min 46 sec) 
Heartbeat CPU 0 instructions: 81000000 cycles: 146948110 heartbeat IPC: 0.367026 cumulative IPC: 0.500764 (Simulation time: 2 hr 21 min 41 sec) 
Heartbeat CPU 0 instructions: 82000003 cycles: 149646537 heartbeat IPC: 0.370587 cumulative IPC: 0.498333 (Simulation time: 2 hr 23 min 44 sec) 
Heartbeat CPU 0 instructions: 83000003 cycles: 152400315 heartbeat IPC: 0.363137 cumulative IPC: 0.495804 (Simulation time: 2 hr 25 min 36 sec) 
Heartbeat CPU 0 instructions: 84000000 cycles: 155144183 heartbeat IPC: 0.364448 cumulative IPC: 0.493401 (Simulation time: 2 hr 27 min 18 sec) 
Heartbeat CPU 0 instructions: 85000002 cycles: 157864372 heartbeat IPC: 0.367622 cumulative IPC: 0.491161 (Simulation time: 2 hr 28 min 56 sec) 
Heartbeat CPU 0 instructions: 86000001 cycles: 160542941 heartbeat IPC: 0.373333 cumulative IPC: 0.489129 (Simulation time: 2 hr 30 min 28 sec) 
Heartbeat CPU 0 instructions: 87000001 cycles: 163242187 heartbeat IPC: 0.370474 cumulative IPC: 0.487103 (Simulation time: 2 hr 31 min 56 sec) 
Heartbeat CPU 0 instructions: 88000000 cycles: 166509163 heartbeat IPC: 0.306093 cumulative IPC: 0.483438 (Simulation time: 2 hr 33 min 34 sec) 
Heartbeat CPU 0 instructions: 89000003 cycles: 169908249 heartbeat IPC: 0.294198 cumulative IPC: 0.479533 (Simulation time: 2 hr 35 min 12 sec) 
Heartbeat CPU 0 instructions: 90000003 cycles: 173407817 heartbeat IPC: 0.28575 cumulative IPC: 0.475503 (Simulation time: 2 hr 36 min 38 sec) 
Heartbeat CPU 0 instructions: 91000003 cycles: 176781831 heartbeat IPC: 0.296383 cumulative IPC: 0.471981 (Simulation time: 2 hr 38 min 1 sec) 
Heartbeat CPU 0 instructions: 92000000 cycles: 179803861 heartbeat IPC: 0.330902 cumulative IPC: 0.46954 (Simulation time: 2 hr 39 min 24 sec) 
Heartbeat CPU 0 instructions: 93000001 cycles: 182925321 heartbeat IPC: 0.320363 cumulative IPC: 0.46692 (Simulation time: 2 hr 40 min 45 sec) 
Heartbeat CPU 0 instructions: 94000001 cycles: 186113031 heartbeat IPC: 0.313705 cumulative IPC: 0.464221 (Simulation time: 2 hr 42 min 7 sec) 
Heartbeat CPU 0 instructions: 95000001 cycles: 189300060 heartbeat IPC: 0.313772 cumulative IPC: 0.461617 (Simulation time: 2 hr 43 min 28 sec) 
Heartbeat CPU 0 instructions: 96000000 cycles: 192733135 heartbeat IPC: 0.291284 cumulative IPC: 0.4585 (Simulation time: 2 hr 44 min 48 sec) 
Heartbeat CPU 0 instructions: 97000000 cycles: 196223967 heartbeat IPC: 0.286465 cumulative IPC: 0.455356 (Simulation time: 2 hr 46 min 4 sec) 
Heartbeat CPU 0 instructions: 98000000 cycles: 199606599 heartbeat IPC: 0.295628 cumulative IPC: 0.452578 (Simulation time: 2 hr 47 min 13 sec) 
Heartbeat CPU 0 instructions: 99000000 cycles: 202803206 heartbeat IPC: 0.312832 cumulative IPC: 0.450317 (Simulation time: 2 hr 48 min 10 sec) 
Heartbeat CPU 0 instructions: 100000000 cycles: 206343862 heartbeat IPC: 0.282434 cumulative IPC: 0.447363 (Simulation time: 2 hr 49 min 10 sec) 
Heartbeat CPU 0 instructions: 101000002 cycles: 209901525 heartbeat IPC: 0.281084 cumulative IPC: 0.444473 (Simulation time: 2 hr 50 min 7 sec) 
Heartbeat CPU 0 instructions: 102000002 cycles: 213418441 heartbeat IPC: 0.28434 cumulative IPC: 0.441769 (Simulation time: 2 hr 51 min 6 sec) 
Heartbeat CPU 0 instructions: 103000002 cycles: 216867058 heartbeat IPC: 0.289971 cumulative IPC: 0.439296 (Simulation time: 2 hr 52 min 0 sec) 
Heartbeat CPU 0 instructions: 104000000 cycles: 220333836 heartbeat IPC: 0.288452 cumulative IPC: 0.436866 (Simulation time: 2 hr 52 min 51 sec) 
Heartbeat CPU 0 instructions: 105000001 cycles: 223730522 heartbeat IPC: 0.294405 cumulative IPC: 0.434652 (Simulation time: 2 hr 53 min 40 sec) 
Heartbeat CPU 0 instructions: 106000001 cycles: 227259407 heartbeat IPC: 0.283376 cumulative IPC: 0.432248 (Simulation time: 2 hr 54 min 24 sec) 
Heartbeat CPU 0 instructions: 107000000 cycles: 230606908 heartbeat IPC: 0.29873 cumulative IPC: 0.430266 (Simulation time: 2 hr 55 min 6 sec) 
Heartbeat CPU 0 instructions: 108000000 cycles: 234124563 heartbeat IPC: 0.28428 cumulative IPC: 0.428023 (Simulation time: 2 hr 55 min 47 sec) 
Heartbeat CPU 0 instructions: 109000000 cycles: 237416011 heartbeat IPC: 0.303818 cumulative IPC: 0.426263 (Simulation time: 2 hr 56 min 24 sec) 
Heartbeat CPU 0 instructions: 110000000 cycles: 240426690 heartbeat IPC: 0.332151 cumulative IPC: 0.425058 (Simulation time: 2 hr 56 min 56 sec) 
Finished CPU 0 instructions: 100000003 cycles: 235261897 cummulative IPC: 0.425058 (Simulation time: 2 hr 56 min 56 sec) 

ChampSim completed all CPUs

Region of Interest Statistics

CPU 0 cummulative IPC: 0.425058 instructions: 100000003 cycles: 235261897
LLC TOTAL     ACCESS:    1058894  HIT:      10870  MISS:    1048024
LLC LOAD      ACCESS:     632848  HIT:       8438  MISS:     624410
LLC RFO       ACCESS:     201034  HIT:        534  MISS:     200500
LLC PREFETCH  ACCESS:          0  HIT:          0  MISS:          0
LLC WRITEBACK ACCESS:     225012  HIT:       1898  MISS:     223114
