
*** ChampSim Multicore Out-of-Order Simulator ***

Warmup Instructions: 10000000
Simulation Instructions: 100000000
Configuration: 1
Number of CPUs: 1
LLC sets: 2048
LLC ways: 16
Off-chip DRAM Channels: 1 Width: 64-bit Data Rate: 1600 MT/s

CPU 0 runs /datasets/cs240c-wi22-a00-public/data/Assignment2-gz/zeusmp_300B.trace.gz
config 1, num_core 1, llc_sets 2048
Heartbeat CPU 0 instructions: 1000003 cycles: 508366 heartbeat IPC: 1.96709 cumulative IPC: 1.96709 (Simulation time: 0 hr 1 min 13 sec) 
Heartbeat CPU 0 instructions: 2000003 cycles: 1058819 heartbeat IPC: 1.81669 cumulative IPC: 1.8889 (Simulation time: 0 hr 2 min 25 sec) 
Heartbeat CPU 0 instructions: 3000002 cycles: 1601370 heartbeat IPC: 1.84314 cumulative IPC: 1.8734 (Simulation time: 0 hr 3 min 38 sec) 
Heartbeat CPU 0 instructions: 4000000 cycles: 2087172 heartbeat IPC: 2.05845 cumulative IPC: 1.91647 (Simulation time: 0 hr 4 min 53 sec) 
Heartbeat CPU 0 instructions: 5000001 cycles: 2570388 heartbeat IPC: 2.06947 cumulative IPC: 1.94523 (Simulation time: 0 hr 6 min 7 sec) 
Heartbeat CPU 0 instructions: 6000000 cycles: 3056245 heartbeat IPC: 2.05822 cumulative IPC: 1.96319 (Simulation time: 0 hr 7 min 26 sec) 
Heartbeat CPU 0 instructions: 7000001 cycles: 3582326 heartbeat IPC: 1.90085 cumulative IPC: 1.95404 (Simulation time: 0 hr 8 min 47 sec) 
Heartbeat CPU 0 instructions: 8000000 cycles: 4132890 heartbeat IPC: 1.81632 cumulative IPC: 1.93569 (Simulation time: 0 hr 9 min 59 sec) 
Heartbeat CPU 0 instructions: 9000000 cycles: 4658666 heartbeat IPC: 1.90195 cumulative IPC: 1.93188 (Simulation time: 0 hr 11 min 16 sec) 
Heartbeat CPU 0 instructions: 10000002 cycles: 5143837 heartbeat IPC: 2.06113 cumulative IPC: 1.94407 (Simulation time: 0 hr 12 min 36 sec) 

Warmup complete CPU 0 instructions: 10000002 cycles: 5143837 (Simulation time: 0 hr 12 min 36 sec) 

Heartbeat CPU 0 instructions: 11000003 cycles: 6032281 heartbeat IPC: 1.12556 cumulative IPC: 1.12556 (Simulation time: 0 hr 14 min 2 sec) 
Heartbeat CPU 0 instructions: 12000000 cycles: 6910213 heartbeat IPC: 1.13904 cumulative IPC: 1.13226 (Simulation time: 0 hr 15 min 25 sec) 
Heartbeat CPU 0 instructions: 13000000 cycles: 7909074 heartbeat IPC: 1.00114 cumulative IPC: 1.0849 (Simulation time: 0 hr 16 min 50 sec) 
Heartbeat CPU 0 instructions: 14000000 cycles: 8930510 heartbeat IPC: 0.979014 cumulative IPC: 1.05634 (Simulation time: 0 hr 18 min 13 sec) 
Heartbeat CPU 0 instructions: 15000002 cycles: 9844953 heartbeat IPC: 1.09356 cumulative IPC: 1.06358 (Simulation time: 0 hr 19 min 34 sec) 
Heartbeat CPU 0 instructions: 16000000 cycles: 10709664 heartbeat IPC: 1.15645 cumulative IPC: 1.07801 (Simulation time: 0 hr 20 min 58 sec) 
Heartbeat CPU 0 instructions: 17000002 cycles: 11581263 heartbeat IPC: 1.14732 cumulative IPC: 1.08739 (Simulation time: 0 hr 22 min 21 sec) 
Heartbeat CPU 0 instructions: 18000000 cycles: 12462300 heartbeat IPC: 1.13502 cumulative IPC: 1.09313 (Simulation time: 0 hr 23 min 43 sec) 
Heartbeat CPU 0 instructions: 19000003 cycles: 13486452 heartbeat IPC: 0.976421 cumulative IPC: 1.0788 (Simulation time: 0 hr 25 min 6 sec) 
Heartbeat CPU 0 instructions: 20000000 cycles: 14506135 heartbeat IPC: 0.980694 cumulative IPC: 1.06811 (Simulation time: 0 hr 26 min 32 sec) 
Heartbeat CPU 0 instructions: 21000001 cycles: 15380284 heartbeat IPC: 1.14397 cumulative IPC: 1.07459 (Simulation time: 0 hr 27 min 51 sec) 
Heartbeat CPU 0 instructions: 22000000 cycles: 16248617 heartbeat IPC: 1.15163 cumulative IPC: 1.08062 (Simulation time: 0 hr 29 min 15 sec) 
Heartbeat CPU 0 instructions: 23000001 cycles: 17115493 heartbeat IPC: 1.15357 cumulative IPC: 1.0859 (Simulation time: 0 hr 30 min 39 sec) 
Heartbeat CPU 0 instructions: 24000000 cycles: 18033113 heartbeat IPC: 1.08977 cumulative IPC: 1.08617 (Simulation time: 0 hr 31 min 58 sec) 
Heartbeat CPU 0 instructions: 25000000 cycles: 19053491 heartbeat IPC: 0.980029 cumulative IPC: 1.07839 (Simulation time: 0 hr 33 min 21 sec) 
Heartbeat CPU 0 instructions: 26000003 cycles: 20046954 heartbeat IPC: 1.00658 cumulative IPC: 1.0736 (Simulation time: 0 hr 34 min 48 sec) 
Heartbeat CPU 0 instructions: 27000002 cycles: 20904502 heartbeat IPC: 1.16611 cumulative IPC: 1.07863 (Simulation time: 0 hr 36 min 6 sec) 
Heartbeat CPU 0 instructions: 28000000 cycles: 21767601 heartbeat IPC: 1.15861 cumulative IPC: 1.08279 (Simulation time: 0 hr 37 min 27 sec) 
Heartbeat CPU 0 instructions: 29000003 cycles: 22627537 heartbeat IPC: 1.16288 cumulative IPC: 1.08673 (Simulation time: 0 hr 38 min 49 sec) 
Heartbeat CPU 0 instructions: 30000002 cycles: 23573769 heartbeat IPC: 1.05682 cumulative IPC: 1.08519 (Simulation time: 0 hr 40 min 12 sec) 
Heartbeat CPU 0 instructions: 31000001 cycles: 24597346 heartbeat IPC: 0.976965 cumulative IPC: 1.0795 (Simulation time: 0 hr 41 min 34 sec) 
Heartbeat CPU 0 instructions: 32000000 cycles: 25563263 heartbeat IPC: 1.03528 cumulative IPC: 1.07741 (Simulation time: 0 hr 42 min 55 sec) 
Heartbeat CPU 0 instructions: 33000000 cycles: 26422141 heartbeat IPC: 1.16431 cumulative IPC: 1.08091 (Simulation time: 0 hr 44 min 14 sec) 
Heartbeat CPU 0 instructions: 34000000 cycles: 27294760 heartbeat IPC: 1.14598 cumulative IPC: 1.08348 (Simulation time: 0 hr 45 min 32 sec) 
Heartbeat CPU 0 instructions: 35000000 cycles: 28157608 heartbeat IPC: 1.15895 cumulative IPC: 1.08631 (Simulation time: 0 hr 46 min 50 sec) 
Heartbeat CPU 0 instructions: 36000000 cycles: 29140549 heartbeat IPC: 1.01736 cumulative IPC: 1.08348 (Simulation time: 0 hr 48 min 12 sec) 
Heartbeat CPU 0 instructions: 37000003 cycles: 30162561 heartbeat IPC: 0.978465 cumulative IPC: 1.07919 (Simulation time: 0 hr 49 min 32 sec) 
Heartbeat CPU 0 instructions: 38000001 cycles: 31095007 heartbeat IPC: 1.07245 cumulative IPC: 1.07895 (Simulation time: 0 hr 50 min 50 sec) 
Heartbeat CPU 0 instructions: 39000002 cycles: 31961711 heartbeat IPC: 1.1538 cumulative IPC: 1.08137 (Simulation time: 0 hr 52 min 8 sec) 
Heartbeat CPU 0 instructions: 40000000 cycles: 32836218 heartbeat IPC: 1.1435 cumulative IPC: 1.08333 (Simulation time: 0 hr 53 min 24 sec) 
Heartbeat CPU 0 instructions: 41000001 cycles: 33703243 heartbeat IPC: 1.15337 cumulative IPC: 1.08546 (Simulation time: 0 hr 54 min 45 sec) 
Heartbeat CPU 0 instructions: 42000002 cycles: 34729894 heartbeat IPC: 0.974042 cumulative IPC: 1.08159 (Simulation time: 0 hr 56 min 8 sec) 
Heartbeat CPU 0 instructions: 43000003 cycles: 35747345 heartbeat IPC: 0.982849 cumulative IPC: 1.07831 (Simulation time: 0 hr 57 min 30 sec) 
Heartbeat CPU 0 instructions: 44000000 cycles: 36639241 heartbeat IPC: 1.1212 cumulative IPC: 1.07952 (Simulation time: 0 hr 58 min 50 sec) 
Heartbeat CPU 0 instructions: 45000002 cycles: 37506071 heartbeat IPC: 1.15363 cumulative IPC: 1.08151 (Simulation time: 1 hr 0 min 7 sec) 
Heartbeat CPU 0 instructions: 46000002 cycles: 38374672 heartbeat IPC: 1.15128 cumulative IPC: 1.08333 (Simulation time: 1 hr 1 min 25 sec) 
Heartbeat CPU 0 instructions: 47000001 cycles: 39271104 heartbeat IPC: 1.11553 cumulative IPC: 1.08418 (Simulation time: 1 hr 2 min 43 sec) 
Heartbeat CPU 0 instructions: 48000000 cycles: 40291115 heartbeat IPC: 0.980381 cumulative IPC: 1.08116 (Simulation time: 1 hr 4 min 5 sec) 
Heartbeat CPU 0 instructions: 49000003 cycles: 41304385 heartbeat IPC: 0.986907 cumulative IPC: 1.07852 (Simulation time: 1 hr 5 min 26 sec) 
Heartbeat CPU 0 instructions: 50000001 cycles: 42162653 heartbeat IPC: 1.16513 cumulative IPC: 1.08053 (Simulation time: 1 hr 6 min 49 sec) 
Heartbeat CPU 0 instructions: 51000002 cycles: 43024111 heartbeat IPC: 1.16082 cumulative IPC: 1.08236 (Simulation time: 1 hr 8 min 7 sec) 
Heartbeat CPU 0 instructions: 52000000 cycles: 43892702 heartbeat IPC: 1.15129 cumulative IPC: 1.0839 (Simulation time: 1 hr 9 min 24 sec) 
Heartbeat CPU 0 instructions: 53000000 cycles: 44823235 heartbeat IPC: 1.07465 cumulative IPC: 1.08369 (Simulation time: 1 hr 10 min 41 sec) 
Heartbeat CPU 0 instructions: 54000002 cycles: 45842680 heartbeat IPC: 0.980928 cumulative IPC: 1.08111 (Simulation time: 1 hr 12 min 4 sec) 
Heartbeat CPU 0 instructions: 55000001 cycles: 46818241 heartbeat IPC: 1.02505 cumulative IPC: 1.0798 (Simulation time: 1 hr 13 min 24 sec) 
Heartbeat CPU 0 instructions: 56000000 cycles: 47680320 heartbeat IPC: 1.15999 cumulative IPC: 1.08142 (Simulation time: 1 hr 14 min 42 sec) 
Heartbeat CPU 0 instructions: 57000000 cycles: 48544737 heartbeat IPC: 1.15685 cumulative IPC: 1.08293 (Simulation time: 1 hr 16 min 2 sec) 
Heartbeat CPU 0 instructions: 58000000 cycles: 49410460 heartbeat IPC: 1.1551 cumulative IPC: 1.08434 (Simulation time: 1 hr 17 min 22 sec) 
Heartbeat CPU 0 instructions: 59000003 cycles: 50373306 heartbeat IPC: 1.03859 cumulative IPC: 1.08336 (Simulation time: 1 hr 18 min 42 sec) 
Heartbeat CPU 0 instructions: 60000000 cycles: 51393751 heartbeat IPC: 0.979962 cumulative IPC: 1.08108 (Simulation time: 1 hr 20 min 4 sec) 
Heartbeat CPU 0 instructions: 61000000 cycles: 52336504 heartbeat IPC: 1.06072 cumulative IPC: 1.08068 (Simulation time: 1 hr 21 min 27 sec) 
Heartbeat CPU 0 instructions: 62000002 cycles: 53201813 heartbeat IPC: 1.15566 cumulative IPC: 1.08203 (Simulation time: 1 hr 22 min 55 sec) 
Heartbeat CPU 0 instructions: 63000003 cycles: 54071848 heartbeat IPC: 1.14938 cumulative IPC: 1.08322 (Simulation time: 1 hr 24 min 20 sec) 
Heartbeat CPU 0 instructions: 64000000 cycles: 54939673 heartbeat IPC: 1.1523 cumulative IPC: 1.08443 (Simulation time: 1 hr 25 min 42 sec) 
Heartbeat CPU 0 instructions: 65000003 cycles: 55946029 heartbeat IPC: 0.993687 cumulative IPC: 1.08263 (Simulation time: 1 hr 27 min 8 sec) 
Heartbeat CPU 0 instructions: 66000003 cycles: 56966957 heartbeat IPC: 0.979501 cumulative IPC: 1.0806 (Simulation time: 1 hr 28 min 30 sec) 
Heartbeat CPU 0 instructions: 67000002 cycles: 57873569 heartbeat IPC: 1.10301 cumulative IPC: 1.08098 (Simulation time: 1 hr 29 min 47 sec) 
Heartbeat CPU 0 instructions: 68000000 cycles: 58737833 heartbeat IPC: 1.15705 cumulative IPC: 1.08221 (Simulation time: 1 hr 31 min 12 sec) 
Heartbeat CPU 0 instructions: 69000000 cycles: 59606598 heartbeat IPC: 1.15106 cumulative IPC: 1.08331 (Simulation time: 1 hr 32 min 33 sec) 
Heartbeat CPU 0 instructions: 70000001 cycles: 60489640 heartbeat IPC: 1.13245 cumulative IPC: 1.08409 (Simulation time: 1 hr 33 min 53 sec) 
Heartbeat CPU 0 instructions: 71000001 cycles: 61505865 heartbeat IPC: 0.984034 cumulative IPC: 1.08229 (Simulation time: 1 hr 35 min 15 sec) 
Heartbeat CPU 0 instructions: 72000000 cycles: 62525254 heartbeat IPC: 0.980979 cumulative IPC: 1.08049 (Simulation time: 1 hr 36 min 34 sec) 
Heartbeat CPU 0 instructions: 73000003 cycles: 63394897 heartbeat IPC: 1.1499 cumulative IPC: 1.08153 (Simulation time: 1 hr 37 min 52 sec) 
Heartbeat CPU 0 instructions: 74000001 cycles: 64257152 heartbeat IPC: 1.15975 cumulative IPC: 1.08267 (Simulation time: 1 hr 39 min 10 sec) 
Heartbeat CPU 0 instructions: 75000003 cycles: 65122147 heartbeat IPC: 1.15608 cumulative IPC: 1.08373 (Simulation time: 1 hr 40 min 30 sec) 
Heartbeat CPU 0 instructions: 76000000 cycles: 66041609 heartbeat IPC: 1.08759 cumulative IPC: 1.08378 (Simulation time: 1 hr 41 min 50 sec) 
Heartbeat CPU 0 instructions: 77000003 cycles: 67064156 heartbeat IPC: 0.977953 cumulative IPC: 1.08204 (Simulation time: 1 hr 43 min 14 sec) 
Heartbeat CPU 0 instructions: 78000003 cycles: 68051641 heartbeat IPC: 1.01267 cumulative IPC: 1.08095 (Simulation time: 1 hr 44 min 36 sec) 
Heartbeat CPU 0 instructions: 79000001 cycles: 68915956 heartbeat IPC: 1.15698 cumulative IPC: 1.08198 (Simulation time: 1 hr 45 min 55 sec) 
Heartbeat CPU 0 instructions: 80000000 cycles: 69786360 heartbeat IPC: 1.14889 cumulative IPC: 1.08288 (Simulation time: 1 hr 47 min 13 sec) 
Heartbeat CPU 0 instructions: 81000000 cycles: 70656736 heartbeat IPC: 1.14893 cumulative IPC: 1.08376 (Simulation time: 1 hr 48 min 34 sec) 
Heartbeat CPU 0 instructions: 82000002 cycles: 71614798 heartbeat IPC: 1.04378 cumulative IPC: 1.08318 (Simulation time: 1 hr 49 min 58 sec) 
Heartbeat CPU 0 instructions: 83000001 cycles: 72635564 heartbeat IPC: 0.979655 cumulative IPC: 1.08161 (Simulation time: 1 hr 51 min 20 sec) 
Heartbeat CPU 0 instructions: 84000000 cycles: 73587980 heartbeat IPC: 1.04996 cumulative IPC: 1.08117 (Simulation time: 1 hr 52 min 39 sec) 
Heartbeat CPU 0 instructions: 85000001 cycles: 74452254 heartbeat IPC: 1.15704 cumulative IPC: 1.08212 (Simulation time: 1 hr 53 min 59 sec) 
Heartbeat CPU 0 instructions: 86000002 cycles: 75321761 heartbeat IPC: 1.15008 cumulative IPC: 1.08296 (Simulation time: 1 hr 55 min 20 sec) 
Heartbeat CPU 0 instructions: 87000000 cycles: 76184622 heartbeat IPC: 1.15893 cumulative IPC: 1.08388 (Simulation time: 1 hr 56 min 38 sec) 
Heartbeat CPU 0 instructions: 88000000 cycles: 77177563 heartbeat IPC: 1.00711 cumulative IPC: 1.08283 (Simulation time: 1 hr 57 min 57 sec) 
Heartbeat CPU 0 instructions: 89000000 cycles: 78197813 heartbeat IPC: 0.980152 cumulative IPC: 1.08139 (Simulation time: 1 hr 59 min 22 sec) 
Heartbeat CPU 0 instructions: 90000002 cycles: 79115066 heartbeat IPC: 1.09021 cumulative IPC: 1.0815 (Simulation time: 2 hr 0 min 42 sec) 
Heartbeat CPU 0 instructions: 91000002 cycles: 79980858 heartbeat IPC: 1.15501 cumulative IPC: 1.08235 (Simulation time: 2 hr 2 min 4 sec) 
Heartbeat CPU 0 instructions: 92000000 cycles: 80851595 heartbeat IPC: 1.14845 cumulative IPC: 1.08311 (Simulation time: 2 hr 3 min 25 sec) 
Heartbeat CPU 0 instructions: 93000001 cycles: 81713084 heartbeat IPC: 1.16078 cumulative IPC: 1.08399 (Simulation time: 2 hr 4 min 50 sec) 
Heartbeat CPU 0 instructions: 94000000 cycles: 82739330 heartbeat IPC: 0.974424 cumulative IPC: 1.08254 (Simulation time: 2 hr 6 min 17 sec) 
Heartbeat CPU 0 instructions: 95000003 cycles: 83757552 heartbeat IPC: 0.982107 cumulative IPC: 1.08124 (Simulation time: 2 hr 7 min 40 sec) 
Heartbeat CPU 0 instructions: 96000000 cycles: 84639073 heartbeat IPC: 1.1344 cumulative IPC: 1.08183 (Simulation time: 2 hr 9 min 2 sec) 
Heartbeat CPU 0 instructions: 97000001 cycles: 85504710 heartbeat IPC: 1.15522 cumulative IPC: 1.08262 (Simulation time: 2 hr 10 min 24 sec) 
Heartbeat CPU 0 instructions: 98000000 cycles: 86369606 heartbeat IPC: 1.15621 cumulative IPC: 1.0834 (Simulation time: 2 hr 11 min 42 sec) 
Heartbeat CPU 0 instructions: 99000001 cycles: 87273327 heartbeat IPC: 1.10654 cumulative IPC: 1.08365 (Simulation time: 2 hr 13 min 4 sec) 
Heartbeat CPU 0 instructions: 100000000 cycles: 88294287 heartbeat IPC: 0.979469 cumulative IPC: 1.08238 (Simulation time: 2 hr 14 min 26 sec) 
Heartbeat CPU 0 instructions: 101000001 cycles: 89300952 heartbeat IPC: 0.99338 cumulative IPC: 1.08131 (Simulation time: 2 hr 15 min 47 sec) 
Heartbeat CPU 0 instructions: 102000003 cycles: 90163946 heartbeat IPC: 1.15876 cumulative IPC: 1.0821 (Simulation time: 2 hr 17 min 7 sec) 
Heartbeat CPU 0 instructions: 103000003 cycles: 91029665 heartbeat IPC: 1.15511 cumulative IPC: 1.08283 (Simulation time: 2 hr 18 min 23 sec) 
Heartbeat CPU 0 instructions: 104000000 cycles: 91893189 heartbeat IPC: 1.15804 cumulative IPC: 1.08358 (Simulation time: 2 hr 19 min 39 sec) 
Heartbeat CPU 0 instructions: 105000001 cycles: 92836321 heartbeat IPC: 1.0603 cumulative IPC: 1.08333 (Simulation time: 2 hr 21 min 0 sec) 
Heartbeat CPU 0 instructions: 106000002 cycles: 93850184 heartbeat IPC: 0.986328 cumulative IPC: 1.08222 (Simulation time: 2 hr 22 min 17 sec) 
Heartbeat CPU 0 instructions: 107000003 cycles: 94821398 heartbeat IPC: 1.02964 cumulative IPC: 1.08165 (Simulation time: 2 hr 23 min 36 sec) 
Heartbeat CPU 0 instructions: 108000000 cycles: 95688165 heartbeat IPC: 1.15371 cumulative IPC: 1.08234 (Simulation time: 2 hr 24 min 55 sec) 
Heartbeat CPU 0 instructions: 109000001 cycles: 96555702 heartbeat IPC: 1.15269 cumulative IPC: 1.08301 (Simulation time: 2 hr 26 min 9 sec) 
Heartbeat CPU 0 instructions: 110000000 cycles: 97420005 heartbeat IPC: 1.157 cumulative IPC: 1.0837 (Simulation time: 2 hr 27 min 21 sec) 
Finished CPU 0 instructions: 100000002 cycles: 92276169 cummulative IPC: 1.0837 (Simulation time: 2 hr 27 min 21 sec) 

ChampSim completed all CPUs

Region of Interest Statistics

CPU 0 cummulative IPC: 1.0837 instructions: 100000002 cycles: 92276169
LLC TOTAL     ACCESS:     613109  HIT:     272477  MISS:     340632
LLC LOAD      ACCESS:     304677  HIT:     113298  MISS:     191379
LLC RFO       ACCESS:     151946  HIT:      75204  MISS:      76742
LLC PREFETCH  ACCESS:          0  HIT:          0  MISS:          0
LLC WRITEBACK ACCESS:     156486  HIT:      83975  MISS:      72511
