
*** ChampSim Multicore Out-of-Order Simulator ***

Warmup Instructions: 10000000
Simulation Instructions: 100000000
Configuration: 1
Number of CPUs: 1
LLC sets: 2048
LLC ways: 16
Off-chip DRAM Channels: 1 Width: 64-bit Data Rate: 1600 MT/s

CPU 0 runs /datasets/cs240c-wi22-a00-public/data/Assignment2-gz/astar_163B.trace.gz
config 1, num_core 1, llc_sets 2048
Heartbeat CPU 0 instructions: 1000002 cycles: 530758 heartbeat IPC: 1.8841 cumulative IPC: 1.8841 (Simulation time: 0 hr 1 min 29 sec) 
Heartbeat CPU 0 instructions: 2000003 cycles: 1059948 heartbeat IPC: 1.88968 cumulative IPC: 1.88689 (Simulation time: 0 hr 3 min 9 sec) 
Heartbeat CPU 0 instructions: 3000002 cycles: 1589604 heartbeat IPC: 1.88802 cumulative IPC: 1.88726 (Simulation time: 0 hr 4 min 44 sec) 
Heartbeat CPU 0 instructions: 4000000 cycles: 2119303 heartbeat IPC: 1.88786 cumulative IPC: 1.88741 (Simulation time: 0 hr 6 min 19 sec) 
Heartbeat CPU 0 instructions: 5000000 cycles: 2650888 heartbeat IPC: 1.88117 cumulative IPC: 1.88616 (Simulation time: 0 hr 7 min 47 sec) 
Heartbeat CPU 0 instructions: 6000002 cycles: 3178984 heartbeat IPC: 1.8936 cumulative IPC: 1.8874 (Simulation time: 0 hr 9 min 18 sec) 
Heartbeat CPU 0 instructions: 7000003 cycles: 3708205 heartbeat IPC: 1.88957 cumulative IPC: 1.88771 (Simulation time: 0 hr 10 min 56 sec) 
Heartbeat CPU 0 instructions: 8000000 cycles: 4237229 heartbeat IPC: 1.89027 cumulative IPC: 1.88803 (Simulation time: 0 hr 12 min 30 sec) 
Heartbeat CPU 0 instructions: 9000000 cycles: 4767938 heartbeat IPC: 1.88427 cumulative IPC: 1.88761 (Simulation time: 0 hr 14 min 8 sec) 
Heartbeat CPU 0 instructions: 10000000 cycles: 5297692 heartbeat IPC: 1.88767 cumulative IPC: 1.88761 (Simulation time: 0 hr 15 min 40 sec) 

Warmup complete CPU 0 instructions: 10000004 cycles: 5297693 (Simulation time: 0 hr 15 min 40 sec) 

Heartbeat CPU 0 instructions: 11000003 cycles: 7549395 heartbeat IPC: 0.44411 cumulative IPC: 0.444108 (Simulation time: 0 hr 17 min 31 sec) 
Heartbeat CPU 0 instructions: 12000000 cycles: 9825455 heartbeat IPC: 0.439354 cumulative IPC: 0.441718 (Simulation time: 0 hr 19 min 19 sec) 
Heartbeat CPU 0 instructions: 13000000 cycles: 12113229 heartbeat IPC: 0.437106 cumulative IPC: 0.44017 (Simulation time: 0 hr 21 min 11 sec) 
Heartbeat CPU 0 instructions: 14000000 cycles: 14410554 heartbeat IPC: 0.435289 cumulative IPC: 0.43894 (Simulation time: 0 hr 23 min 5 sec) 
Heartbeat CPU 0 instructions: 15000000 cycles: 16759802 heartbeat IPC: 0.425668 cumulative IPC: 0.43622 (Simulation time: 0 hr 24 min 56 sec) 
Heartbeat CPU 0 instructions: 16000000 cycles: 19168669 heartbeat IPC: 0.415133 cumulative IPC: 0.432558 (Simulation time: 0 hr 26 min 41 sec) 
Heartbeat CPU 0 instructions: 17000003 cycles: 21523733 heartbeat IPC: 0.424618 cumulative IPC: 0.431405 (Simulation time: 0 hr 28 min 27 sec) 
Heartbeat CPU 0 instructions: 18000002 cycles: 23864715 heartbeat IPC: 0.427171 cumulative IPC: 0.430871 (Simulation time: 0 hr 30 min 15 sec) 
Heartbeat CPU 0 instructions: 19000000 cycles: 26198883 heartbeat IPC: 0.428417 cumulative IPC: 0.430597 (Simulation time: 0 hr 32 min 2 sec) 
Heartbeat CPU 0 instructions: 20000000 cycles: 28546649 heartbeat IPC: 0.425937 cumulative IPC: 0.430127 (Simulation time: 0 hr 33 min 52 sec) 
Heartbeat CPU 0 instructions: 21000003 cycles: 30944729 heartbeat IPC: 0.417002 cumulative IPC: 0.428899 (Simulation time: 0 hr 35 min 41 sec) 
Heartbeat CPU 0 instructions: 22000002 cycles: 33452802 heartbeat IPC: 0.398712 cumulative IPC: 0.42621 (Simulation time: 0 hr 37 min 45 sec) 
Heartbeat CPU 0 instructions: 23000001 cycles: 35934384 heartbeat IPC: 0.402968 cumulative IPC: 0.424328 (Simulation time: 0 hr 39 min 38 sec) 
Heartbeat CPU 0 instructions: 24000000 cycles: 38416895 heartbeat IPC: 0.402818 cumulative IPC: 0.422715 (Simulation time: 0 hr 41 min 33 sec) 
Heartbeat CPU 0 instructions: 25000003 cycles: 40632308 heartbeat IPC: 0.451384 cumulative IPC: 0.424513 (Simulation time: 0 hr 43 min 12 sec) 
Heartbeat CPU 0 instructions: 26000003 cycles: 42387314 heartbeat IPC: 0.569799 cumulative IPC: 0.431388 (Simulation time: 0 hr 45 min 2 sec) 
Heartbeat CPU 0 instructions: 27000000 cycles: 44219509 heartbeat IPC: 0.545792 cumulative IPC: 0.436773 (Simulation time: 0 hr 46 min 49 sec) 
Heartbeat CPU 0 instructions: 28000000 cycles: 46172282 heartbeat IPC: 0.512092 cumulative IPC: 0.440371 (Simulation time: 0 hr 48 min 40 sec) 
Heartbeat CPU 0 instructions: 29000000 cycles: 48115849 heartbeat IPC: 0.514518 cumulative IPC: 0.443737 (Simulation time: 0 hr 50 min 54 sec) 
Heartbeat CPU 0 instructions: 30000000 cycles: 50045202 heartbeat IPC: 0.518308 cumulative IPC: 0.446952 (Simulation time: 0 hr 53 min 11 sec) 
Heartbeat CPU 0 instructions: 31000001 cycles: 51916584 heartbeat IPC: 0.534365 cumulative IPC: 0.450461 (Simulation time: 0 hr 55 min 37 sec) 
Heartbeat CPU 0 instructions: 32000000 cycles: 53828279 heartbeat IPC: 0.523095 cumulative IPC: 0.453322 (Simulation time: 0 hr 58 min 4 sec) 
Heartbeat CPU 0 instructions: 33000000 cycles: 55722274 heartbeat IPC: 0.527984 cumulative IPC: 0.456127 (Simulation time: 1 hr 0 min 37 sec) 
Heartbeat CPU 0 instructions: 34000001 cycles: 57590838 heartbeat IPC: 0.535171 cumulative IPC: 0.458951 (Simulation time: 1 hr 3 min 8 sec) 
Heartbeat CPU 0 instructions: 35000001 cycles: 59472323 heartbeat IPC: 0.531495 cumulative IPC: 0.461471 (Simulation time: 1 hr 5 min 22 sec) 
Heartbeat CPU 0 instructions: 36000000 cycles: 61346641 heartbeat IPC: 0.533527 cumulative IPC: 0.46388 (Simulation time: 1 hr 7 min 54 sec) 
Heartbeat CPU 0 instructions: 37000000 cycles: 63312963 heartbeat IPC: 0.508564 cumulative IPC: 0.465395 (Simulation time: 1 hr 10 min 24 sec) 
Heartbeat CPU 0 instructions: 38000000 cycles: 65207678 heartbeat IPC: 0.527784 cumulative IPC: 0.467368 (Simulation time: 1 hr 12 min 43 sec) 
Heartbeat CPU 0 instructions: 39000001 cycles: 67059933 heartbeat IPC: 0.539883 cumulative IPC: 0.469543 (Simulation time: 1 hr 15 min 16 sec) 
Heartbeat CPU 0 instructions: 40000000 cycles: 68948251 heartbeat IPC: 0.529571 cumulative IPC: 0.471323 (Simulation time: 1 hr 17 min 38 sec) 
Heartbeat CPU 0 instructions: 41000001 cycles: 70875565 heartbeat IPC: 0.518857 cumulative IPC: 0.47272 (Simulation time: 1 hr 20 min 1 sec) 
Heartbeat CPU 0 instructions: 42000001 cycles: 72897075 heartbeat IPC: 0.49468 cumulative IPC: 0.473377 (Simulation time: 1 hr 22 min 12 sec) 
Heartbeat CPU 0 instructions: 43000001 cycles: 74924505 heartbeat IPC: 0.493235 cumulative IPC: 0.473955 (Simulation time: 1 hr 24 min 16 sec) 
Heartbeat CPU 0 instructions: 44000000 cycles: 77000295 heartbeat IPC: 0.481744 cumulative IPC: 0.474181 (Simulation time: 1 hr 26 min 16 sec) 
Heartbeat CPU 0 instructions: 45000000 cycles: 79099109 heartbeat IPC: 0.47646 cumulative IPC: 0.474246 (Simulation time: 1 hr 28 min 12 sec) 
Heartbeat CPU 0 instructions: 46000002 cycles: 81009862 heartbeat IPC: 0.523355 cumulative IPC: 0.475485 (Simulation time: 1 hr 30 min 18 sec) 
Heartbeat CPU 0 instructions: 47000000 cycles: 82916156 heartbeat IPC: 0.524577 cumulative IPC: 0.476691 (Simulation time: 1 hr 32 min 24 sec) 
Heartbeat CPU 0 instructions: 48000000 cycles: 84843735 heartbeat IPC: 0.518785 cumulative IPC: 0.477711 (Simulation time: 1 hr 34 min 24 sec) 
Heartbeat CPU 0 instructions: 49000003 cycles: 86806218 heartbeat IPC: 0.50956 cumulative IPC: 0.478478 (Simulation time: 1 hr 36 min 18 sec) 
Heartbeat CPU 0 instructions: 50000001 cycles: 88733485 heartbeat IPC: 0.518868 cumulative IPC: 0.479411 (Simulation time: 1 hr 38 min 18 sec) 
Heartbeat CPU 0 instructions: 51000003 cycles: 90681103 heartbeat IPC: 0.513449 cumulative IPC: 0.480187 (Simulation time: 1 hr 40 min 14 sec) 
Heartbeat CPU 0 instructions: 52000000 cycles: 92714440 heartbeat IPC: 0.491801 cumulative IPC: 0.480457 (Simulation time: 1 hr 41 min 58 sec) 
Heartbeat CPU 0 instructions: 53000001 cycles: 94693715 heartbeat IPC: 0.505236 cumulative IPC: 0.481006 (Simulation time: 1 hr 43 min 52 sec) 
Heartbeat CPU 0 instructions: 54000003 cycles: 96608862 heartbeat IPC: 0.522154 cumulative IPC: 0.481869 (Simulation time: 1 hr 45 min 50 sec) 
Heartbeat CPU 0 instructions: 55000000 cycles: 98501679 heartbeat IPC: 0.528311 cumulative IPC: 0.482812 (Simulation time: 1 hr 47 min 47 sec) 
Heartbeat CPU 0 instructions: 56000000 cycles: 100418465 heartbeat IPC: 0.521707 cumulative IPC: 0.483596 (Simulation time: 1 hr 49 min 47 sec) 
Heartbeat CPU 0 instructions: 57000000 cycles: 102296494 heartbeat IPC: 0.532473 cumulative IPC: 0.484542 (Simulation time: 1 hr 51 min 41 sec) 
Heartbeat CPU 0 instructions: 58000001 cycles: 104239528 heartbeat IPC: 0.51466 cumulative IPC: 0.485133 (Simulation time: 1 hr 53 min 40 sec) 
Heartbeat CPU 0 instructions: 59000003 cycles: 106169052 heartbeat IPC: 0.518264 cumulative IPC: 0.485767 (Simulation time: 1 hr 55 min 47 sec) 
Heartbeat CPU 0 instructions: 60000000 cycles: 108091516 heartbeat IPC: 0.520164 cumulative IPC: 0.48641 (Simulation time: 1 hr 57 min 49 sec) 
Heartbeat CPU 0 instructions: 61000002 cycles: 110008662 heartbeat IPC: 0.52161 cumulative IPC: 0.487055 (Simulation time: 1 hr 59 min 54 sec) 
Heartbeat CPU 0 instructions: 62000001 cycles: 111929031 heartbeat IPC: 0.520733 cumulative IPC: 0.487661 (Simulation time: 2 hr 1 min 50 sec) 
Heartbeat CPU 0 instructions: 63000001 cycles: 113978843 heartbeat IPC: 0.48785 cumulative IPC: 0.487665 (Simulation time: 2 hr 3 min 43 sec) 
Heartbeat CPU 0 instructions: 64000000 cycles: 115941870 heartbeat IPC: 0.509417 cumulative IPC: 0.488051 (Simulation time: 2 hr 5 min 37 sec) 
Heartbeat CPU 0 instructions: 65000000 cycles: 117891264 heartbeat IPC: 0.51298 cumulative IPC: 0.488483 (Simulation time: 2 hr 7 min 39 sec) 
Heartbeat CPU 0 instructions: 66000000 cycles: 119846096 heartbeat IPC: 0.511553 cumulative IPC: 0.488876 (Simulation time: 2 hr 9 min 31 sec) 
Heartbeat CPU 0 instructions: 67000003 cycles: 121795798 heartbeat IPC: 0.5129 cumulative IPC: 0.489278 (Simulation time: 2 hr 11 min 30 sec) 
Heartbeat CPU 0 instructions: 68000000 cycles: 123741844 heartbeat IPC: 0.513861 cumulative IPC: 0.489682 (Simulation time: 2 hr 13 min 32 sec) 
Heartbeat CPU 0 instructions: 69000000 cycles: 125701971 heartbeat IPC: 0.510171 cumulative IPC: 0.490016 (Simulation time: 2 hr 15 min 24 sec) 
Heartbeat CPU 0 instructions: 70000003 cycles: 127676581 heartbeat IPC: 0.506431 cumulative IPC: 0.490281 (Simulation time: 2 hr 17 min 17 sec) 
Heartbeat CPU 0 instructions: 71000001 cycles: 129657366 heartbeat IPC: 0.504849 cumulative IPC: 0.490513 (Simulation time: 2 hr 19 min 6 sec) 
Heartbeat CPU 0 instructions: 72000000 cycles: 131630688 heartbeat IPC: 0.506759 cumulative IPC: 0.490766 (Simulation time: 2 hr 21 min 3 sec) 
Heartbeat CPU 0 instructions: 73000000 cycles: 133589856 heartbeat IPC: 0.510421 cumulative IPC: 0.491067 (Simulation time: 2 hr 23 min 0 sec) 
Heartbeat CPU 0 instructions: 74000000 cycles: 135558416 heartbeat IPC: 0.507986 cumulative IPC: 0.491322 (Simulation time: 2 hr 24 min 53 sec) 
Heartbeat CPU 0 instructions: 75000001 cycles: 137492382 heartbeat IPC: 0.517073 cumulative IPC: 0.491699 (Simulation time: 2 hr 26 min 39 sec) 
Heartbeat CPU 0 instructions: 76000000 cycles: 139437706 heartbeat IPC: 0.514053 cumulative IPC: 0.492023 (Simulation time: 2 hr 28 min 26 sec) 
Heartbeat CPU 0 instructions: 77000001 cycles: 141506762 heartbeat IPC: 0.483313 cumulative IPC: 0.491891 (Simulation time: 2 hr 29 min 58 sec) 
Heartbeat CPU 0 instructions: 78000000 cycles: 143499318 heartbeat IPC: 0.501867 cumulative IPC: 0.492035 (Simulation time: 2 hr 31 min 33 sec) 
Heartbeat CPU 0 instructions: 79000003 cycles: 145580398 heartbeat IPC: 0.480521 cumulative IPC: 0.491864 (Simulation time: 2 hr 32 min 52 sec) 
Heartbeat CPU 0 instructions: 80000000 cycles: 147803202 heartbeat IPC: 0.449881 cumulative IPC: 0.491209 (Simulation time: 2 hr 34 min 8 sec) 
Heartbeat CPU 0 instructions: 81000003 cycles: 149991142 heartbeat IPC: 0.457052 cumulative IPC: 0.490693 (Simulation time: 2 hr 35 min 27 sec) 
Heartbeat CPU 0 instructions: 82000000 cycles: 152097149 heartbeat IPC: 0.474831 cumulative IPC: 0.490465 (Simulation time: 2 hr 36 min 50 sec) 
Heartbeat CPU 0 instructions: 83000000 cycles: 154130824 heartbeat IPC: 0.491721 cumulative IPC: 0.490482 (Simulation time: 2 hr 38 min 9 sec) 
Heartbeat CPU 0 instructions: 84000000 cycles: 156144465 heartbeat IPC: 0.496613 cumulative IPC: 0.490564 (Simulation time: 2 hr 39 min 21 sec) 
Heartbeat CPU 0 instructions: 85000001 cycles: 158138711 heartbeat IPC: 0.501443 cumulative IPC: 0.490706 (Simulation time: 2 hr 40 min 34 sec) 
Heartbeat CPU 0 instructions: 86000002 cycles: 160131053 heartbeat IPC: 0.501922 cumulative IPC: 0.49085 (Simulation time: 2 hr 41 min 40 sec) 
Heartbeat CPU 0 instructions: 87000000 cycles: 162167556 heartbeat IPC: 0.491037 cumulative IPC: 0.490853 (Simulation time: 2 hr 42 min 49 sec) 
Heartbeat CPU 0 instructions: 88000000 cycles: 164266178 heartbeat IPC: 0.476503 cumulative IPC: 0.490663 (Simulation time: 2 hr 43 min 45 sec) 
Heartbeat CPU 0 instructions: 89000003 cycles: 166280129 heartbeat IPC: 0.496538 cumulative IPC: 0.490737 (Simulation time: 2 hr 44 min 51 sec) 
Heartbeat CPU 0 instructions: 90000000 cycles: 168276099 heartbeat IPC: 0.501008 cumulative IPC: 0.490863 (Simulation time: 2 hr 46 min 0 sec) 
Heartbeat CPU 0 instructions: 91000000 cycles: 170297141 heartbeat IPC: 0.494794 cumulative IPC: 0.490911 (Simulation time: 2 hr 47 min 1 sec) 
Heartbeat CPU 0 instructions: 92000000 cycles: 172341411 heartbeat IPC: 0.489172 cumulative IPC: 0.490889 (Simulation time: 2 hr 48 min 4 sec) 
Heartbeat CPU 0 instructions: 93000003 cycles: 174325417 heartbeat IPC: 0.504032 cumulative IPC: 0.491044 (Simulation time: 2 hr 49 min 6 sec) 
Heartbeat CPU 0 instructions: 94000000 cycles: 176296653 heartbeat IPC: 0.507294 cumulative IPC: 0.491231 (Simulation time: 2 hr 50 min 3 sec) 
Heartbeat CPU 0 instructions: 95000000 cycles: 178293839 heartbeat IPC: 0.500704 cumulative IPC: 0.49134 (Simulation time: 2 hr 51 min 2 sec) 
Heartbeat CPU 0 instructions: 96000000 cycles: 180334558 heartbeat IPC: 0.490023 cumulative IPC: 0.491325 (Simulation time: 2 hr 51 min 53 sec) 
Heartbeat CPU 0 instructions: 97000000 cycles: 182373738 heartbeat IPC: 0.490393 cumulative IPC: 0.491314 (Simulation time: 2 hr 52 min 38 sec) 
Heartbeat CPU 0 instructions: 98000000 cycles: 184387670 heartbeat IPC: 0.496541 cumulative IPC: 0.491373 (Simulation time: 2 hr 53 min 25 sec) 
Heartbeat CPU 0 instructions: 99000000 cycles: 186502275 heartbeat IPC: 0.472902 cumulative IPC: 0.491158 (Simulation time: 2 hr 54 min 10 sec) 
Heartbeat CPU 0 instructions: 100000000 cycles: 188527841 heartbeat IPC: 0.493689 cumulative IPC: 0.491186 (Simulation time: 2 hr 54 min 49 sec) 
Heartbeat CPU 0 instructions: 101000000 cycles: 190617809 heartbeat IPC: 0.478476 cumulative IPC: 0.491042 (Simulation time: 2 hr 55 min 22 sec) 
Heartbeat CPU 0 instructions: 102000003 cycles: 192659513 heartbeat IPC: 0.489788 cumulative IPC: 0.491029 (Simulation time: 2 hr 55 min 54 sec) 
Heartbeat CPU 0 instructions: 103000000 cycles: 194636194 heartbeat IPC: 0.505897 cumulative IPC: 0.491184 (Simulation time: 2 hr 56 min 27 sec) 
Heartbeat CPU 0 instructions: 104000000 cycles: 196603883 heartbeat IPC: 0.50821 cumulative IPC: 0.491359 (Simulation time: 2 hr 56 min 59 sec) 
Heartbeat CPU 0 instructions: 105000002 cycles: 198571245 heartbeat IPC: 0.508296 cumulative IPC: 0.491531 (Simulation time: 2 hr 57 min 32 sec) 
Heartbeat CPU 0 instructions: 106000003 cycles: 200543024 heartbeat IPC: 0.507157 cumulative IPC: 0.491689 (Simulation time: 2 hr 58 min 1 sec) 
Heartbeat CPU 0 instructions: 107000000 cycles: 202520134 heartbeat IPC: 0.505787 cumulative IPC: 0.49183 (Simulation time: 2 hr 58 min 28 sec) 
Heartbeat CPU 0 instructions: 108000000 cycles: 204643379 heartbeat IPC: 0.470977 cumulative IPC: 0.491608 (Simulation time: 2 hr 58 min 53 sec) 
Heartbeat CPU 0 instructions: 109000003 cycles: 206729746 heartbeat IPC: 0.479304 cumulative IPC: 0.491481 (Simulation time: 2 hr 59 min 17 sec) 
Heartbeat CPU 0 instructions: 110000002 cycles: 208764792 heartbeat IPC: 0.491389 cumulative IPC: 0.49148 (Simulation time: 2 hr 59 min 39 sec) 
Finished CPU 0 instructions: 100000000 cycles: 203467103 cummulative IPC: 0.49148 (Simulation time: 2 hr 59 min 39 sec) 

ChampSim completed all CPUs

Region of Interest Statistics

CPU 0 cummulative IPC: 0.49148 instructions: 100000000 cycles: 203467103
LLC TOTAL     ACCESS:     373284  HIT:     156724  MISS:     216560
LLC LOAD      ACCESS:     144393  HIT:      53796  MISS:      90597
LLC RFO       ACCESS:      71291  HIT:      23238  MISS:      48053
LLC PREFETCH  ACCESS:          0  HIT:          0  MISS:          0
LLC WRITEBACK ACCESS:     157600  HIT:      79690  MISS:      77910
