
*** ChampSim Multicore Out-of-Order Simulator ***

Warmup Instructions: 10000000
Simulation Instructions: 100000000
Configuration: 1
Number of CPUs: 1
LLC sets: 2048
LLC ways: 16
Off-chip DRAM Channels: 1 Width: 64-bit Data Rate: 1600 MT/s

CPU 0 runs /datasets/cs240c-wi22-a00-public/data/Assignment2-gz/omnetpp_4B.trace.gz
config 1, num_core 1, llc_sets 2048
Heartbeat CPU 0 instructions: 1000001 cycles: 566789 heartbeat IPC: 1.76433 cumulative IPC: 1.76433 (Simulation time: 0 hr 1 min 24 sec) 
Heartbeat CPU 0 instructions: 2000001 cycles: 1135803 heartbeat IPC: 1.75743 cumulative IPC: 1.76087 (Simulation time: 0 hr 2 min 43 sec) 
Heartbeat CPU 0 instructions: 3000001 cycles: 1724066 heartbeat IPC: 1.69992 cumulative IPC: 1.74007 (Simulation time: 0 hr 4 min 1 sec) 
Heartbeat CPU 0 instructions: 4000000 cycles: 2293971 heartbeat IPC: 1.75468 cumulative IPC: 1.7437 (Simulation time: 0 hr 5 min 22 sec) 
Heartbeat CPU 0 instructions: 5000000 cycles: 2868311 heartbeat IPC: 1.74113 cumulative IPC: 1.74319 (Simulation time: 0 hr 6 min 42 sec) 
Heartbeat CPU 0 instructions: 6000000 cycles: 3444851 heartbeat IPC: 1.73449 cumulative IPC: 1.74173 (Simulation time: 0 hr 8 min 4 sec) 
Heartbeat CPU 0 instructions: 7000000 cycles: 4014018 heartbeat IPC: 1.75695 cumulative IPC: 1.74389 (Simulation time: 0 hr 9 min 25 sec) 
Heartbeat CPU 0 instructions: 8000000 cycles: 4567353 heartbeat IPC: 1.80722 cumulative IPC: 1.75156 (Simulation time: 0 hr 10 min 45 sec) 
Heartbeat CPU 0 instructions: 9000001 cycles: 5149525 heartbeat IPC: 1.71771 cumulative IPC: 1.74773 (Simulation time: 0 hr 12 min 5 sec) 
Heartbeat CPU 0 instructions: 10000000 cycles: 5703488 heartbeat IPC: 1.80517 cumulative IPC: 1.75331 (Simulation time: 0 hr 13 min 28 sec) 

Warmup complete CPU 0 instructions: 10000003 cycles: 5703489 (Simulation time: 0 hr 13 min 28 sec) 

Heartbeat CPU 0 instructions: 11000000 cycles: 8916101 heartbeat IPC: 0.311273 cumulative IPC: 0.311272 (Simulation time: 0 hr 15 min 2 sec) 
Heartbeat CPU 0 instructions: 12000000 cycles: 10072426 heartbeat IPC: 0.864809 cumulative IPC: 0.457777 (Simulation time: 0 hr 16 min 17 sec) 
Heartbeat CPU 0 instructions: 13000003 cycles: 11217996 heartbeat IPC: 0.872931 cumulative IPC: 0.54402 (Simulation time: 0 hr 17 min 31 sec) 
Heartbeat CPU 0 instructions: 14000000 cycles: 12338134 heartbeat IPC: 0.892744 cumulative IPC: 0.602895 (Simulation time: 0 hr 18 min 43 sec) 
Heartbeat CPU 0 instructions: 15000000 cycles: 13477312 heartbeat IPC: 0.877826 cumulative IPC: 0.643184 (Simulation time: 0 hr 20 min 1 sec) 
Heartbeat CPU 0 instructions: 16000000 cycles: 16347009 heartbeat IPC: 0.348469 cumulative IPC: 0.563723 (Simulation time: 0 hr 21 min 28 sec) 
Heartbeat CPU 0 instructions: 17000003 cycles: 19239176 heartbeat IPC: 0.345763 cumulative IPC: 0.517151 (Simulation time: 0 hr 23 min 4 sec) 
Heartbeat CPU 0 instructions: 18000002 cycles: 22087958 heartbeat IPC: 0.351027 cumulative IPC: 0.488267 (Simulation time: 0 hr 24 min 40 sec) 
Heartbeat CPU 0 instructions: 19000002 cycles: 24941390 heartbeat IPC: 0.350455 cumulative IPC: 0.467826 (Simulation time: 0 hr 26 min 13 sec) 
Heartbeat CPU 0 instructions: 20000000 cycles: 28290826 heartbeat IPC: 0.298557 cumulative IPC: 0.442726 (Simulation time: 0 hr 27 min 47 sec) 
Heartbeat CPU 0 instructions: 21000000 cycles: 31643826 heartbeat IPC: 0.29824 cumulative IPC: 0.42405 (Simulation time: 0 hr 29 min 18 sec) 
Heartbeat CPU 0 instructions: 22000001 cycles: 34854228 heartbeat IPC: 0.311488 cumulative IPC: 0.411653 (Simulation time: 0 hr 30 min 53 sec) 
Heartbeat CPU 0 instructions: 23000000 cycles: 37721174 heartbeat IPC: 0.348803 cumulative IPC: 0.406025 (Simulation time: 0 hr 32 min 23 sec) 
Heartbeat CPU 0 instructions: 24000000 cycles: 40528258 heartbeat IPC: 0.356242 cumulative IPC: 0.402013 (Simulation time: 0 hr 33 min 43 sec) 
Heartbeat CPU 0 instructions: 25000000 cycles: 43354746 heartbeat IPC: 0.353796 cumulative IPC: 0.398393 (Simulation time: 0 hr 35 min 9 sec) 
Heartbeat CPU 0 instructions: 26000002 cycles: 46159248 heartbeat IPC: 0.35657 cumulative IPC: 0.395494 (Simulation time: 0 hr 36 min 33 sec) 
Heartbeat CPU 0 instructions: 27000001 cycles: 49019622 heartbeat IPC: 0.349604 cumulative IPC: 0.392463 (Simulation time: 0 hr 37 min 57 sec) 
Heartbeat CPU 0 instructions: 28000000 cycles: 51810658 heartbeat IPC: 0.35829 cumulative IPC: 0.390395 (Simulation time: 0 hr 39 min 20 sec) 
Heartbeat CPU 0 instructions: 29000001 cycles: 54698288 heartbeat IPC: 0.346305 cumulative IPC: 0.387796 (Simulation time: 0 hr 40 min 44 sec) 
Heartbeat CPU 0 instructions: 30000000 cycles: 57505996 heartbeat IPC: 0.356162 cumulative IPC: 0.386082 (Simulation time: 0 hr 42 min 13 sec) 
Heartbeat CPU 0 instructions: 31000002 cycles: 60321284 heartbeat IPC: 0.355204 cumulative IPC: 0.38449 (Simulation time: 0 hr 43 min 33 sec) 
Heartbeat CPU 0 instructions: 32000000 cycles: 63170569 heartbeat IPC: 0.350965 cumulative IPC: 0.382828 (Simulation time: 0 hr 45 min 3 sec) 
Heartbeat CPU 0 instructions: 33000000 cycles: 66365107 heartbeat IPC: 0.313034 cumulative IPC: 0.379152 (Simulation time: 0 hr 46 min 27 sec) 
Heartbeat CPU 0 instructions: 34000001 cycles: 69711353 heartbeat IPC: 0.298843 cumulative IPC: 0.374954 (Simulation time: 0 hr 47 min 51 sec) 
Heartbeat CPU 0 instructions: 35000001 cycles: 72803503 heartbeat IPC: 0.3234 cumulative IPC: 0.372578 (Simulation time: 0 hr 49 min 23 sec) 
Heartbeat CPU 0 instructions: 36000000 cycles: 76137557 heartbeat IPC: 0.299935 cumulative IPC: 0.369139 (Simulation time: 0 hr 50 min 53 sec) 
Heartbeat CPU 0 instructions: 37000001 cycles: 78947364 heartbeat IPC: 0.355897 cumulative IPC: 0.368631 (Simulation time: 0 hr 52 min 17 sec) 
Heartbeat CPU 0 instructions: 38000001 cycles: 82159045 heartbeat IPC: 0.311363 cumulative IPC: 0.366226 (Simulation time: 0 hr 53 min 42 sec) 
Heartbeat CPU 0 instructions: 39000001 cycles: 84705506 heartbeat IPC: 0.392702 cumulative IPC: 0.367079 (Simulation time: 0 hr 55 min 0 sec) 
Heartbeat CPU 0 instructions: 40000000 cycles: 85827961 heartbeat IPC: 0.890903 cumulative IPC: 0.374417 (Simulation time: 0 hr 56 min 7 sec) 
Heartbeat CPU 0 instructions: 41000001 cycles: 86954135 heartbeat IPC: 0.887963 cumulative IPC: 0.381535 (Simulation time: 0 hr 57 min 17 sec) 
Heartbeat CPU 0 instructions: 42000001 cycles: 88088493 heartbeat IPC: 0.881556 cumulative IPC: 0.38842 (Simulation time: 0 hr 58 min 26 sec) 
Heartbeat CPU 0 instructions: 43000002 cycles: 89326370 heartbeat IPC: 0.807836 cumulative IPC: 0.394629 (Simulation time: 0 hr 59 min 36 sec) 
Heartbeat CPU 0 instructions: 44000000 cycles: 92231835 heartbeat IPC: 0.344178 cumulative IPC: 0.392935 (Simulation time: 1 hr 0 min 59 sec) 
Heartbeat CPU 0 instructions: 45000000 cycles: 95198046 heartbeat IPC: 0.33713 cumulative IPC: 0.391085 (Simulation time: 1 hr 2 min 25 sec) 
Heartbeat CPU 0 instructions: 46000000 cycles: 98573415 heartbeat IPC: 0.296264 cumulative IPC: 0.387639 (Simulation time: 1 hr 3 min 50 sec) 
Heartbeat CPU 0 instructions: 47000000 cycles: 101925854 heartbeat IPC: 0.29829 cumulative IPC: 0.384526 (Simulation time: 1 hr 5 min 13 sec) 
Heartbeat CPU 0 instructions: 48000000 cycles: 105103787 heartbeat IPC: 0.31467 cumulative IPC: 0.382293 (Simulation time: 1 hr 6 min 43 sec) 
Heartbeat CPU 0 instructions: 49000000 cycles: 108074162 heartbeat IPC: 0.336658 cumulative IPC: 0.380968 (Simulation time: 1 hr 8 min 11 sec) 
Heartbeat CPU 0 instructions: 50000001 cycles: 110931012 heartbeat IPC: 0.350036 cumulative IPC: 0.380129 (Simulation time: 1 hr 9 min 33 sec) 
Heartbeat CPU 0 instructions: 51000003 cycles: 113750901 heartbeat IPC: 0.354625 cumulative IPC: 0.379463 (Simulation time: 1 hr 10 min 53 sec) 
Heartbeat CPU 0 instructions: 52000000 cycles: 116582526 heartbeat IPC: 0.353153 cumulative IPC: 0.378791 (Simulation time: 1 hr 12 min 13 sec) 
Heartbeat CPU 0 instructions: 53000003 cycles: 119415155 heartbeat IPC: 0.35303 cumulative IPC: 0.378149 (Simulation time: 1 hr 13 min 34 sec) 
Heartbeat CPU 0 instructions: 54000001 cycles: 122208121 heartbeat IPC: 0.358042 cumulative IPC: 0.377667 (Simulation time: 1 hr 15 min 1 sec) 
Heartbeat CPU 0 instructions: 55000001 cycles: 125215924 heartbeat IPC: 0.332469 cumulative IPC: 0.37653 (Simulation time: 1 hr 16 min 30 sec) 
Heartbeat CPU 0 instructions: 56000000 cycles: 128036466 heartbeat IPC: 0.354541 cumulative IPC: 0.376023 (Simulation time: 1 hr 17 min 54 sec) 
Heartbeat CPU 0 instructions: 57000003 cycles: 130862397 heartbeat IPC: 0.353867 cumulative IPC: 0.375523 (Simulation time: 1 hr 19 min 14 sec) 
Heartbeat CPU 0 instructions: 58000001 cycles: 133866639 heartbeat IPC: 0.332862 cumulative IPC: 0.374523 (Simulation time: 1 hr 20 min 47 sec) 
Heartbeat CPU 0 instructions: 59000001 cycles: 137180653 heartbeat IPC: 0.301749 cumulative IPC: 0.372688 (Simulation time: 1 hr 22 min 22 sec) 
Heartbeat CPU 0 instructions: 60000000 cycles: 140195506 heartbeat IPC: 0.331691 cumulative IPC: 0.371769 (Simulation time: 1 hr 23 min 53 sec) 
Heartbeat CPU 0 instructions: 61000001 cycles: 143323415 heartbeat IPC: 0.319703 cumulative IPC: 0.370586 (Simulation time: 1 hr 25 min 20 sec) 
Heartbeat CPU 0 instructions: 62000000 cycles: 146713351 heartbeat IPC: 0.294991 cumulative IPC: 0.368769 (Simulation time: 1 hr 26 min 53 sec) 
Heartbeat CPU 0 instructions: 63000001 cycles: 149564460 heartbeat IPC: 0.350741 cumulative IPC: 0.368411 (Simulation time: 1 hr 28 min 22 sec) 
Heartbeat CPU 0 instructions: 64000000 cycles: 152390945 heartbeat IPC: 0.353796 cumulative IPC: 0.36813 (Simulation time: 1 hr 29 min 43 sec) 
Heartbeat CPU 0 instructions: 65000001 cycles: 155215225 heartbeat IPC: 0.354073 cumulative IPC: 0.367864 (Simulation time: 1 hr 31 min 13 sec) 
Heartbeat CPU 0 instructions: 66000002 cycles: 159392273 heartbeat IPC: 0.239404 cumulative IPC: 0.364373 (Simulation time: 1 hr 32 min 56 sec) 
Heartbeat CPU 0 instructions: 67000001 cycles: 161117320 heartbeat IPC: 0.579694 cumulative IPC: 0.366763 (Simulation time: 1 hr 34 min 17 sec) 
Heartbeat CPU 0 instructions: 68000000 cycles: 162245644 heartbeat IPC: 0.886269 cumulative IPC: 0.370507 (Simulation time: 1 hr 35 min 26 sec) 
Heartbeat CPU 0 instructions: 69000003 cycles: 163387542 heartbeat IPC: 0.875738 cumulative IPC: 0.374166 (Simulation time: 1 hr 36 min 40 sec) 
Heartbeat CPU 0 instructions: 70000000 cycles: 164507906 heartbeat IPC: 0.892564 cumulative IPC: 0.377823 (Simulation time: 1 hr 37 min 55 sec) 
Heartbeat CPU 0 instructions: 71000001 cycles: 165682789 heartbeat IPC: 0.851149 cumulative IPC: 0.381299 (Simulation time: 1 hr 39 min 9 sec) 
Heartbeat CPU 0 instructions: 72000000 cycles: 169048040 heartbeat IPC: 0.297154 cumulative IPC: 0.379566 (Simulation time: 1 hr 40 min 40 sec) 
Heartbeat CPU 0 instructions: 73000000 cycles: 172482428 heartbeat IPC: 0.291173 cumulative IPC: 0.377746 (Simulation time: 1 hr 42 min 11 sec) 
Heartbeat CPU 0 instructions: 74000001 cycles: 175846846 heartbeat IPC: 0.297229 cumulative IPC: 0.376153 (Simulation time: 1 hr 43 min 54 sec) 
Heartbeat CPU 0 instructions: 75000001 cycles: 178791986 heartbeat IPC: 0.339542 cumulative IPC: 0.37553 (Simulation time: 1 hr 45 min 38 sec) 
Heartbeat CPU 0 instructions: 76000000 cycles: 181631774 heartbeat IPC: 0.352139 cumulative IPC: 0.375153 (Simulation time: 1 hr 47 min 17 sec) 
Heartbeat CPU 0 instructions: 77000000 cycles: 184469526 heartbeat IPC: 0.352392 cumulative IPC: 0.374792 (Simulation time: 1 hr 48 min 56 sec) 
Heartbeat CPU 0 instructions: 78000001 cycles: 187307624 heartbeat IPC: 0.352349 cumulative IPC: 0.374441 (Simulation time: 1 hr 50 min 27 sec) 
Heartbeat CPU 0 instructions: 79000001 cycles: 190135420 heartbeat IPC: 0.353632 cumulative IPC: 0.374122 (Simulation time: 1 hr 52 min 8 sec) 
Heartbeat CPU 0 instructions: 80000000 cycles: 192949587 heartbeat IPC: 0.355345 cumulative IPC: 0.37384 (Simulation time: 1 hr 53 min 42 sec) 
Heartbeat CPU 0 instructions: 81000002 cycles: 195889050 heartbeat IPC: 0.340199 cumulative IPC: 0.37332 (Simulation time: 1 hr 55 min 17 sec) 
Heartbeat CPU 0 instructions: 82000001 cycles: 198712394 heartbeat IPC: 0.35419 cumulative IPC: 0.37304 (Simulation time: 1 hr 56 min 53 sec) 
Heartbeat CPU 0 instructions: 83000002 cycles: 201631718 heartbeat IPC: 0.342545 cumulative IPC: 0.372585 (Simulation time: 1 hr 58 min 27 sec) 
Heartbeat CPU 0 instructions: 84000000 cycles: 204510863 heartbeat IPC: 0.347325 cumulative IPC: 0.37222 (Simulation time: 2 hr 0 min 5 sec) 
Heartbeat CPU 0 instructions: 85000002 cycles: 207854820 heartbeat IPC: 0.299047 cumulative IPC: 0.371009 (Simulation time: 2 hr 1 min 42 sec) 
Heartbeat CPU 0 instructions: 86000002 cycles: 211201896 heartbeat IPC: 0.298768 cumulative IPC: 0.369833 (Simulation time: 2 hr 3 min 21 sec) 
Heartbeat CPU 0 instructions: 87000000 cycles: 214309394 heartbeat IPC: 0.321802 cumulative IPC: 0.369117 (Simulation time: 2 hr 4 min 59 sec) 
Heartbeat CPU 0 instructions: 88000000 cycles: 217413048 heartbeat IPC: 0.322201 cumulative IPC: 0.368429 (Simulation time: 2 hr 6 min 34 sec) 
Heartbeat CPU 0 instructions: 89000002 cycles: 220522564 heartbeat IPC: 0.321594 cumulative IPC: 0.367751 (Simulation time: 2 hr 7 min 58 sec) 
Heartbeat CPU 0 instructions: 90000001 cycles: 223349099 heartbeat IPC: 0.35379 cumulative IPC: 0.36757 (Simulation time: 2 hr 9 min 33 sec) 
Heartbeat CPU 0 instructions: 91000001 cycles: 226196193 heartbeat IPC: 0.351235 cumulative IPC: 0.367359 (Simulation time: 2 hr 10 min 58 sec) 
Heartbeat CPU 0 instructions: 92000000 cycles: 229217071 heartbeat IPC: 0.331029 cumulative IPC: 0.366868 (Simulation time: 2 hr 12 min 28 sec) 
Heartbeat CPU 0 instructions: 93000000 cycles: 232055458 heartbeat IPC: 0.352313 cumulative IPC: 0.366686 (Simulation time: 2 hr 13 min 59 sec) 
Heartbeat CPU 0 instructions: 94000000 cycles: 236675970 heartbeat IPC: 0.216426 cumulative IPC: 0.36368 (Simulation time: 2 hr 15 min 49 sec) 
Heartbeat CPU 0 instructions: 95000000 cycles: 237877007 heartbeat IPC: 0.832614 cumulative IPC: 0.366105 (Simulation time: 2 hr 17 min 4 sec) 
Heartbeat CPU 0 instructions: 96000000 cycles: 239020073 heartbeat IPC: 0.87484 cumulative IPC: 0.368598 (Simulation time: 2 hr 18 min 22 sec) 
Heartbeat CPU 0 instructions: 97000002 cycles: 240138574 heartbeat IPC: 0.894056 cumulative IPC: 0.371105 (Simulation time: 2 hr 19 min 34 sec) 
Heartbeat CPU 0 instructions: 98000001 cycles: 241280370 heartbeat IPC: 0.875812 cumulative IPC: 0.373551 (Simulation time: 2 hr 20 min 46 sec) 
Heartbeat CPU 0 instructions: 99000002 cycles: 243167026 heartbeat IPC: 0.530039 cumulative IPC: 0.374794 (Simulation time: 2 hr 22 min 7 sec) 
Heartbeat CPU 0 instructions: 100000000 cycles: 246616046 heartbeat IPC: 0.289937 cumulative IPC: 0.37358 (Simulation time: 2 hr 23 min 38 sec) 
Heartbeat CPU 0 instructions: 101000002 cycles: 249756444 heartbeat IPC: 0.318432 cumulative IPC: 0.37287 (Simulation time: 2 hr 25 min 7 sec) 
Heartbeat CPU 0 instructions: 102000001 cycles: 252808658 heartbeat IPC: 0.327631 cumulative IPC: 0.372311 (Simulation time: 2 hr 26 min 23 sec) 
Heartbeat CPU 0 instructions: 103000000 cycles: 255652559 heartbeat IPC: 0.351629 cumulative IPC: 0.372076 (Simulation time: 2 hr 27 min 40 sec) 
Heartbeat CPU 0 instructions: 104000000 cycles: 258508913 heartbeat IPC: 0.350097 cumulative IPC: 0.371827 (Simulation time: 2 hr 28 min 55 sec) 
Heartbeat CPU 0 instructions: 105000001 cycles: 261331002 heartbeat IPC: 0.354348 cumulative IPC: 0.371634 (Simulation time: 2 hr 30 min 2 sec) 
Heartbeat CPU 0 instructions: 106000000 cycles: 264292986 heartbeat IPC: 0.337611 cumulative IPC: 0.371245 (Simulation time: 2 hr 31 min 15 sec) 
Heartbeat CPU 0 instructions: 107000002 cycles: 267132850 heartbeat IPC: 0.35213 cumulative IPC: 0.371037 (Simulation time: 2 hr 32 min 22 sec) 
Heartbeat CPU 0 instructions: 108000000 cycles: 270016552 heartbeat IPC: 0.346776 cumulative IPC: 0.370772 (Simulation time: 2 hr 33 min 25 sec) 
Heartbeat CPU 0 instructions: 109000002 cycles: 272826874 heartbeat IPC: 0.355832 cumulative IPC: 0.370615 (Simulation time: 2 hr 34 min 26 sec) 
Heartbeat CPU 0 instructions: 110000001 cycles: 275690335 heartbeat IPC: 0.349227 cumulative IPC: 0.370388 (Simulation time: 2 hr 35 min 25 sec) 
Finished CPU 0 instructions: 100000001 cycles: 269986848 cummulative IPC: 0.370388 (Simulation time: 2 hr 35 min 25 sec) 

ChampSim completed all CPUs

Region of Interest Statistics

CPU 0 cummulative IPC: 0.370388 instructions: 100000001 cycles: 269986848
LLC TOTAL     ACCESS:    2613319  HIT:    2390305  MISS:     223014
LLC LOAD      ACCESS:    2495336  HIT:    2298703  MISS:     196633
LLC RFO       ACCESS:      37618  HIT:      23624  MISS:      13994
LLC PREFETCH  ACCESS:          0  HIT:          0  MISS:          0
LLC WRITEBACK ACCESS:      80365  HIT:      67978  MISS:      12387
