
*** ChampSim Multicore Out-of-Order Simulator ***

Warmup Instructions: 10000000
Simulation Instructions: 100000000
Configuration: 1
Number of CPUs: 1
LLC sets: 2048
LLC ways: 16
Off-chip DRAM Channels: 1 Width: 64-bit Data Rate: 1600 MT/s

CPU 0 runs /datasets/cs240c-wi22-a00-public/data/Assignment2-gz/lbm_564B.trace.gz
config 1, num_core 1, llc_sets 2048
Heartbeat CPU 0 instructions: 1000000 cycles: 390238 heartbeat IPC: 2.56254 cumulative IPC: 2.56254 (Simulation time: 0 hr 1 min 21 sec) 
Heartbeat CPU 0 instructions: 2000003 cycles: 785322 heartbeat IPC: 2.53111 cumulative IPC: 2.54673 (Simulation time: 0 hr 2 min 43 sec) 
Heartbeat CPU 0 instructions: 3000002 cycles: 1175572 heartbeat IPC: 2.56246 cumulative IPC: 2.55195 (Simulation time: 0 hr 4 min 8 sec) 
Heartbeat CPU 0 instructions: 4000000 cycles: 1565781 heartbeat IPC: 2.56272 cumulative IPC: 2.55464 (Simulation time: 0 hr 5 min 29 sec) 
Heartbeat CPU 0 instructions: 5000000 cycles: 1960942 heartbeat IPC: 2.53061 cumulative IPC: 2.54979 (Simulation time: 0 hr 6 min 55 sec) 
Heartbeat CPU 0 instructions: 6000002 cycles: 2351141 heartbeat IPC: 2.5628 cumulative IPC: 2.55195 (Simulation time: 0 hr 8 min 16 sec) 
Heartbeat CPU 0 instructions: 7000001 cycles: 2741415 heartbeat IPC: 2.5623 cumulative IPC: 2.55343 (Simulation time: 0 hr 9 min 32 sec) 
Heartbeat CPU 0 instructions: 8000000 cycles: 3136507 heartbeat IPC: 2.53105 cumulative IPC: 2.55061 (Simulation time: 0 hr 10 min 48 sec) 
Heartbeat CPU 0 instructions: 9000000 cycles: 3526751 heartbeat IPC: 2.5625 cumulative IPC: 2.55192 (Simulation time: 0 hr 12 min 5 sec) 
Heartbeat CPU 0 instructions: 10000002 cycles: 3916975 heartbeat IPC: 2.56264 cumulative IPC: 2.55299 (Simulation time: 0 hr 13 min 20 sec) 

Warmup complete CPU 0 instructions: 10000002 cycles: 3916975 (Simulation time: 0 hr 13 min 20 sec) 

Heartbeat CPU 0 instructions: 11000000 cycles: 5681101 heartbeat IPC: 0.566852 cumulative IPC: 0.566852 (Simulation time: 0 hr 14 min 58 sec) 
Heartbeat CPU 0 instructions: 12000000 cycles: 7510711 heartbeat IPC: 0.546565 cumulative IPC: 0.556523 (Simulation time: 0 hr 16 min 35 sec) 
Heartbeat CPU 0 instructions: 13000001 cycles: 9243474 heartbeat IPC: 0.577114 cumulative IPC: 0.563222 (Simulation time: 0 hr 18 min 15 sec) 
Heartbeat CPU 0 instructions: 14000003 cycles: 11007142 heartbeat IPC: 0.567001 cumulative IPC: 0.564162 (Simulation time: 0 hr 19 min 53 sec) 
Heartbeat CPU 0 instructions: 15000000 cycles: 12808962 heartbeat IPC: 0.554993 cumulative IPC: 0.562304 (Simulation time: 0 hr 21 min 35 sec) 
Heartbeat CPU 0 instructions: 16000000 cycles: 14550121 heartbeat IPC: 0.57433 cumulative IPC: 0.564273 (Simulation time: 0 hr 23 min 13 sec) 
Heartbeat CPU 0 instructions: 17000000 cycles: 16279253 heartbeat IPC: 0.578325 cumulative IPC: 0.566239 (Simulation time: 0 hr 24 min 51 sec) 
Heartbeat CPU 0 instructions: 18000000 cycles: 18058150 heartbeat IPC: 0.562146 cumulative IPC: 0.565724 (Simulation time: 0 hr 26 min 31 sec) 
Heartbeat CPU 0 instructions: 19000003 cycles: 19771456 heartbeat IPC: 0.583669 cumulative IPC: 0.567663 (Simulation time: 0 hr 28 min 10 sec) 
Heartbeat CPU 0 instructions: 20000000 cycles: 21529583 heartbeat IPC: 0.568785 cumulative IPC: 0.567775 (Simulation time: 0 hr 29 min 48 sec) 
Heartbeat CPU 0 instructions: 21000003 cycles: 23223847 heartbeat IPC: 0.590229 cumulative IPC: 0.569745 (Simulation time: 0 hr 31 min 22 sec) 
Heartbeat CPU 0 instructions: 22000003 cycles: 25661979 heartbeat IPC: 0.41015 cumulative IPC: 0.551851 (Simulation time: 0 hr 33 min 20 sec) 
Heartbeat CPU 0 instructions: 23000002 cycles: 28253449 heartbeat IPC: 0.385881 cumulative IPC: 0.534178 (Simulation time: 0 hr 35 min 25 sec) 
Heartbeat CPU 0 instructions: 24000000 cycles: 35140658 heartbeat IPC: 0.145196 cumulative IPC: 0.448378 (Simulation time: 0 hr 39 min 32 sec) 
Heartbeat CPU 0 instructions: 25000003 cycles: 38324536 heartbeat IPC: 0.314083 cumulative IPC: 0.435951 (Simulation time: 0 hr 41 min 57 sec) 
Heartbeat CPU 0 instructions: 26000002 cycles: 41056097 heartbeat IPC: 0.366091 cumulative IPC: 0.430813 (Simulation time: 0 hr 44 min 4 sec) 
Heartbeat CPU 0 instructions: 27000001 cycles: 42671595 heartbeat IPC: 0.619004 cumulative IPC: 0.438657 (Simulation time: 0 hr 45 min 36 sec) 
Heartbeat CPU 0 instructions: 28000000 cycles: 44320773 heartbeat IPC: 0.606362 cumulative IPC: 0.445503 (Simulation time: 0 hr 47 min 9 sec) 
Heartbeat CPU 0 instructions: 29000003 cycles: 46017443 heartbeat IPC: 0.589392 cumulative IPC: 0.451301 (Simulation time: 0 hr 48 min 53 sec) 
Heartbeat CPU 0 instructions: 30000000 cycles: 47641919 heartbeat IPC: 0.615581 cumulative IPC: 0.457405 (Simulation time: 0 hr 50 min 30 sec) 
Heartbeat CPU 0 instructions: 31000000 cycles: 49161376 heartbeat IPC: 0.65813 cumulative IPC: 0.464146 (Simulation time: 0 hr 51 min 58 sec) 
Heartbeat CPU 0 instructions: 32000000 cycles: 50744731 heartbeat IPC: 0.63157 cumulative IPC: 0.469807 (Simulation time: 0 hr 53 min 27 sec) 
Heartbeat CPU 0 instructions: 33000001 cycles: 52400041 heartbeat IPC: 0.604117 cumulative IPC: 0.474392 (Simulation time: 0 hr 54 min 59 sec) 
Heartbeat CPU 0 instructions: 34000001 cycles: 53899840 heartbeat IPC: 0.666756 cumulative IPC: 0.480165 (Simulation time: 0 hr 56 min 27 sec) 
Heartbeat CPU 0 instructions: 35000002 cycles: 55428554 heartbeat IPC: 0.654145 cumulative IPC: 0.485328 (Simulation time: 0 hr 57 min 58 sec) 
Heartbeat CPU 0 instructions: 36000000 cycles: 56917057 heartbeat IPC: 0.671815 cumulative IPC: 0.490565 (Simulation time: 0 hr 59 min 29 sec) 
Heartbeat CPU 0 instructions: 37000000 cycles: 58528421 heartbeat IPC: 0.620592 cumulative IPC: 0.494402 (Simulation time: 1 hr 1 min 1 sec) 
Heartbeat CPU 0 instructions: 38000002 cycles: 60071286 heartbeat IPC: 0.648146 cumulative IPC: 0.498626 (Simulation time: 1 hr 2 min 30 sec) 
Heartbeat CPU 0 instructions: 39000002 cycles: 61591236 heartbeat IPC: 0.657916 cumulative IPC: 0.502824 (Simulation time: 1 hr 4 min 0 sec) 
Heartbeat CPU 0 instructions: 40000000 cycles: 63230433 heartbeat IPC: 0.610054 cumulative IPC: 0.505787 (Simulation time: 1 hr 5 min 32 sec) 
Heartbeat CPU 0 instructions: 41000000 cycles: 64809042 heartbeat IPC: 0.633469 cumulative IPC: 0.509097 (Simulation time: 1 hr 7 min 6 sec) 
Heartbeat CPU 0 instructions: 42000002 cycles: 66308229 heartbeat IPC: 0.66703 cumulative IPC: 0.512892 (Simulation time: 1 hr 8 min 39 sec) 
Heartbeat CPU 0 instructions: 43000001 cycles: 67853426 heartbeat IPC: 0.647166 cumulative IPC: 0.516137 (Simulation time: 1 hr 10 min 14 sec) 
Heartbeat CPU 0 instructions: 44000000 cycles: 69465263 heartbeat IPC: 0.620409 cumulative IPC: 0.518702 (Simulation time: 1 hr 11 min 54 sec) 
Heartbeat CPU 0 instructions: 45000001 cycles: 70979253 heartbeat IPC: 0.660507 cumulative IPC: 0.521903 (Simulation time: 1 hr 13 min 30 sec) 
Heartbeat CPU 0 instructions: 46000002 cycles: 72500710 heartbeat IPC: 0.657265 cumulative IPC: 0.524906 (Simulation time: 1 hr 15 min 2 sec) 
Heartbeat CPU 0 instructions: 47000001 cycles: 74071137 heartbeat IPC: 0.636769 cumulative IPC: 0.52741 (Simulation time: 1 hr 16 min 37 sec) 
Heartbeat CPU 0 instructions: 48000000 cycles: 75624879 heartbeat IPC: 0.643607 cumulative IPC: 0.529928 (Simulation time: 1 hr 18 min 11 sec) 
Heartbeat CPU 0 instructions: 49000001 cycles: 77109362 heartbeat IPC: 0.673636 cumulative IPC: 0.532842 (Simulation time: 1 hr 19 min 44 sec) 
Heartbeat CPU 0 instructions: 50000000 cycles: 78727002 heartbeat IPC: 0.618184 cumulative IPC: 0.534688 (Simulation time: 1 hr 21 min 22 sec) 
Heartbeat CPU 0 instructions: 51000002 cycles: 80247841 heartbeat IPC: 0.657533 cumulative IPC: 0.537135 (Simulation time: 1 hr 22 min 58 sec) 
Heartbeat CPU 0 instructions: 52000000 cycles: 81774309 heartbeat IPC: 0.655106 cumulative IPC: 0.539448 (Simulation time: 1 hr 24 min 37 sec) 
Heartbeat CPU 0 instructions: 53000001 cycles: 83305327 heartbeat IPC: 0.653161 cumulative IPC: 0.541641 (Simulation time: 1 hr 26 min 13 sec) 
Heartbeat CPU 0 instructions: 54000001 cycles: 84889098 heartbeat IPC: 0.631404 cumulative IPC: 0.543397 (Simulation time: 1 hr 27 min 51 sec) 
Heartbeat CPU 0 instructions: 55000003 cycles: 86412156 heartbeat IPC: 0.656575 cumulative IPC: 0.545486 (Simulation time: 1 hr 29 min 27 sec) 
Heartbeat CPU 0 instructions: 56000000 cycles: 87940427 heartbeat IPC: 0.654332 cumulative IPC: 0.547466 (Simulation time: 1 hr 30 min 59 sec) 
Heartbeat CPU 0 instructions: 57000001 cycles: 89520061 heartbeat IPC: 0.633059 cumulative IPC: 0.549046 (Simulation time: 1 hr 32 min 41 sec) 
Heartbeat CPU 0 instructions: 58000002 cycles: 91090542 heartbeat IPC: 0.636748 cumulative IPC: 0.550626 (Simulation time: 1 hr 34 min 19 sec) 
Heartbeat CPU 0 instructions: 59000001 cycles: 92623917 heartbeat IPC: 0.652156 cumulative IPC: 0.552381 (Simulation time: 1 hr 35 min 56 sec) 
Heartbeat CPU 0 instructions: 60000000 cycles: 94197142 heartbeat IPC: 0.635636 cumulative IPC: 0.553831 (Simulation time: 1 hr 37 min 33 sec) 
Heartbeat CPU 0 instructions: 61000003 cycles: 95810761 heartbeat IPC: 0.619727 cumulative IPC: 0.554989 (Simulation time: 1 hr 39 min 9 sec) 
Heartbeat CPU 0 instructions: 62000003 cycles: 97358725 heartbeat IPC: 0.64601 cumulative IPC: 0.556496 (Simulation time: 1 hr 40 min 48 sec) 
Heartbeat CPU 0 instructions: 63000000 cycles: 98940211 heartbeat IPC: 0.632315 cumulative IPC: 0.557758 (Simulation time: 1 hr 42 min 31 sec) 
Heartbeat CPU 0 instructions: 64000000 cycles: 100543169 heartbeat IPC: 0.623847 cumulative IPC: 0.558855 (Simulation time: 1 hr 44 min 10 sec) 
Heartbeat CPU 0 instructions: 65000003 cycles: 102103005 heartbeat IPC: 0.641095 cumulative IPC: 0.560161 (Simulation time: 1 hr 45 min 48 sec) 
Heartbeat CPU 0 instructions: 66000000 cycles: 103614293 heartbeat IPC: 0.661685 cumulative IPC: 0.5617 (Simulation time: 1 hr 47 min 37 sec) 
Heartbeat CPU 0 instructions: 67000001 cycles: 105223278 heartbeat IPC: 0.62151 cumulative IPC: 0.56265 (Simulation time: 1 hr 49 min 24 sec) 
Heartbeat CPU 0 instructions: 68000000 cycles: 106867151 heartbeat IPC: 0.608319 cumulative IPC: 0.563379 (Simulation time: 1 hr 51 min 8 sec) 
Heartbeat CPU 0 instructions: 69000003 cycles: 108375519 heartbeat IPC: 0.66297 cumulative IPC: 0.564817 (Simulation time: 1 hr 52 min 51 sec) 
Heartbeat CPU 0 instructions: 70000003 cycles: 109963853 heartbeat IPC: 0.629591 cumulative IPC: 0.565788 (Simulation time: 1 hr 54 min 39 sec) 
Heartbeat CPU 0 instructions: 71000000 cycles: 111665408 heartbeat IPC: 0.587696 cumulative IPC: 0.566133 (Simulation time: 1 hr 56 min 28 sec) 
Heartbeat CPU 0 instructions: 72000000 cycles: 113163256 heartbeat IPC: 0.667624 cumulative IPC: 0.567525 (Simulation time: 1 hr 58 min 11 sec) 
Heartbeat CPU 0 instructions: 73000003 cycles: 114742711 heartbeat IPC: 0.633132 cumulative IPC: 0.56846 (Simulation time: 1 hr 59 min 57 sec) 
Heartbeat CPU 0 instructions: 74000002 cycles: 116478373 heartbeat IPC: 0.576148 cumulative IPC: 0.568579 (Simulation time: 2 hr 1 min 42 sec) 
Heartbeat CPU 0 instructions: 75000002 cycles: 118003560 heartbeat IPC: 0.655657 cumulative IPC: 0.569743 (Simulation time: 2 hr 3 min 26 sec) 
Heartbeat CPU 0 instructions: 76000000 cycles: 119596090 heartbeat IPC: 0.62793 cumulative IPC: 0.570544 (Simulation time: 2 hr 5 min 7 sec) 
Heartbeat CPU 0 instructions: 77000003 cycles: 121350884 heartbeat IPC: 0.569869 cumulative IPC: 0.570534 (Simulation time: 2 hr 6 min 57 sec) 
Heartbeat CPU 0 instructions: 78000002 cycles: 122881839 heartbeat IPC: 0.653186 cumulative IPC: 0.571597 (Simulation time: 2 hr 8 min 39 sec) 
Heartbeat CPU 0 instructions: 79000000 cycles: 124452664 heartbeat IPC: 0.636607 cumulative IPC: 0.572445 (Simulation time: 2 hr 10 min 27 sec) 
Heartbeat CPU 0 instructions: 80000000 cycles: 126210806 heartbeat IPC: 0.568782 cumulative IPC: 0.572392 (Simulation time: 2 hr 12 min 24 sec) 
Heartbeat CPU 0 instructions: 81000003 cycles: 127779407 heartbeat IPC: 0.637513 cumulative IPC: 0.573217 (Simulation time: 2 hr 14 min 14 sec) 
Heartbeat CPU 0 instructions: 82000000 cycles: 129378671 heartbeat IPC: 0.625286 cumulative IPC: 0.57388 (Simulation time: 2 hr 16 min 3 sec) 
Heartbeat CPU 0 instructions: 83000003 cycles: 131110077 heartbeat IPC: 0.577567 cumulative IPC: 0.573931 (Simulation time: 2 hr 17 min 54 sec) 
Heartbeat CPU 0 instructions: 84000000 cycles: 132751088 heartbeat IPC: 0.609379 cumulative IPC: 0.574382 (Simulation time: 2 hr 19 min 41 sec) 
Heartbeat CPU 0 instructions: 85000002 cycles: 134257113 heartbeat IPC: 0.664001 cumulative IPC: 0.575418 (Simulation time: 2 hr 21 min 26 sec) 
Heartbeat CPU 0 instructions: 86000002 cycles: 136038492 heartbeat IPC: 0.561363 cumulative IPC: 0.575228 (Simulation time: 2 hr 23 min 7 sec) 
Heartbeat CPU 0 instructions: 87000003 cycles: 137697819 heartbeat IPC: 0.602655 cumulative IPC: 0.575568 (Simulation time: 2 hr 24 min 51 sec) 
Heartbeat CPU 0 instructions: 88000000 cycles: 139188500 heartbeat IPC: 0.670832 cumulative IPC: 0.576618 (Simulation time: 2 hr 26 min 29 sec) 
Heartbeat CPU 0 instructions: 89000003 cycles: 140945060 heartbeat IPC: 0.569296 cumulative IPC: 0.576524 (Simulation time: 2 hr 28 min 12 sec) 
Heartbeat CPU 0 instructions: 90000001 cycles: 142630975 heartbeat IPC: 0.593149 cumulative IPC: 0.576726 (Simulation time: 2 hr 29 min 36 sec) 
Heartbeat CPU 0 instructions: 91000003 cycles: 144118618 heartbeat IPC: 0.672206 cumulative IPC: 0.577739 (Simulation time: 2 hr 31 min 4 sec) 
Heartbeat CPU 0 instructions: 92000000 cycles: 145870249 heartbeat IPC: 0.570895 cumulative IPC: 0.577655 (Simulation time: 2 hr 32 min 38 sec) 
Heartbeat CPU 0 instructions: 93000003 cycles: 147591209 heartbeat IPC: 0.581073 cumulative IPC: 0.577696 (Simulation time: 2 hr 33 min 57 sec) 
Heartbeat CPU 0 instructions: 94000002 cycles: 149102083 heartbeat IPC: 0.661868 cumulative IPC: 0.578572 (Simulation time: 2 hr 35 min 13 sec) 
Heartbeat CPU 0 instructions: 95000001 cycles: 150851067 heartbeat IPC: 0.57176 cumulative IPC: 0.578491 (Simulation time: 2 hr 36 min 23 sec) 
Heartbeat CPU 0 instructions: 96000000 cycles: 152580792 heartbeat IPC: 0.578126 cumulative IPC: 0.578486 (Simulation time: 2 hr 37 min 37 sec) 
Heartbeat CPU 0 instructions: 97000000 cycles: 154100231 heartbeat IPC: 0.658138 cumulative IPC: 0.579292 (Simulation time: 2 hr 38 min 47 sec) 
Heartbeat CPU 0 instructions: 98000000 cycles: 155871975 heartbeat IPC: 0.564416 cumulative IPC: 0.579119 (Simulation time: 2 hr 40 min 0 sec) 
Heartbeat CPU 0 instructions: 99000003 cycles: 157575455 heartbeat IPC: 0.587035 cumulative IPC: 0.579207 (Simulation time: 2 hr 41 min 6 sec) 
Heartbeat CPU 0 instructions: 100000000 cycles: 159080214 heartbeat IPC: 0.664556 cumulative IPC: 0.580034 (Simulation time: 2 hr 42 min 7 sec) 
Heartbeat CPU 0 instructions: 101000002 cycles: 160896242 heartbeat IPC: 0.550653 cumulative IPC: 0.579694 (Simulation time: 2 hr 43 min 8 sec) 
Heartbeat CPU 0 instructions: 102000002 cycles: 162616461 heartbeat IPC: 0.581321 cumulative IPC: 0.579712 (Simulation time: 2 hr 44 min 10 sec) 
Heartbeat CPU 0 instructions: 103000001 cycles: 164146709 heartbeat IPC: 0.653488 cumulative IPC: 0.580417 (Simulation time: 2 hr 45 min 6 sec) 
Heartbeat CPU 0 instructions: 104000000 cycles: 165942850 heartbeat IPC: 0.556749 cumulative IPC: 0.580154 (Simulation time: 2 hr 46 min 7 sec) 
Heartbeat CPU 0 instructions: 105000001 cycles: 167649846 heartbeat IPC: 0.585825 cumulative IPC: 0.580213 (Simulation time: 2 hr 47 min 5 sec) 
Heartbeat CPU 0 instructions: 106000003 cycles: 169167358 heartbeat IPC: 0.658975 cumulative IPC: 0.580937 (Simulation time: 2 hr 47 min 58 sec) 
Heartbeat CPU 0 instructions: 107000000 cycles: 171017252 heartbeat IPC: 0.54057 cumulative IPC: 0.58049 (Simulation time: 2 hr 48 min 57 sec) 
Heartbeat CPU 0 instructions: 108000000 cycles: 172714356 heartbeat IPC: 0.589239 cumulative IPC: 0.580578 (Simulation time: 2 hr 49 min 45 sec) 
Heartbeat CPU 0 instructions: 109000003 cycles: 174229321 heartbeat IPC: 0.660083 cumulative IPC: 0.581285 (Simulation time: 2 hr 50 min 32 sec) 
Heartbeat CPU 0 instructions: 110000001 cycles: 176122536 heartbeat IPC: 0.528201 cumulative IPC: 0.580701 (Simulation time: 2 hr 51 min 21 sec) 
Finished CPU 0 instructions: 100000003 cycles: 172205562 cummulative IPC: 0.580701 (Simulation time: 2 hr 51 min 21 sec) 

ChampSim completed all CPUs

Region of Interest Statistics

CPU 0 cummulative IPC: 0.580701 instructions: 100000003 cycles: 172205562
LLC TOTAL     ACCESS:    6027244  HIT:    1331298  MISS:    4695946
LLC LOAD      ACCESS:     843450  HIT:        158  MISS:     843292
LLC RFO       ACCESS:    2591794  HIT:     525333  MISS:    2066461
LLC PREFETCH  ACCESS:          0  HIT:          0  MISS:          0
LLC WRITEBACK ACCESS:    2592000  HIT:     805807  MISS:    1786193
