
*** ChampSim Multicore Out-of-Order Simulator ***

Warmup Instructions: 10000000
Simulation Instructions: 100000000
Configuration: 1
Number of CPUs: 1
LLC sets: 2048
LLC ways: 16
Off-chip DRAM Channels: 1 Width: 64-bit Data Rate: 1600 MT/s

CPU 0 runs /datasets/cs240c-wi22-a00-public/data/Assignment2-gz/GemsFDTD_712B.trace.gz
config 1, num_core 1, llc_sets 2048
Heartbeat CPU 0 instructions: 1000003 cycles: 633083 heartbeat IPC: 1.57958 cumulative IPC: 1.57958 (Simulation time: 0 hr 1 min 48 sec) 
Heartbeat CPU 0 instructions: 2000000 cycles: 1266020 heartbeat IPC: 1.57993 cumulative IPC: 1.57975 (Simulation time: 0 hr 3 min 26 sec) 
Heartbeat CPU 0 instructions: 3000000 cycles: 1898637 heartbeat IPC: 1.58074 cumulative IPC: 1.58008 (Simulation time: 0 hr 5 min 8 sec) 
Heartbeat CPU 0 instructions: 4000000 cycles: 2530955 heartbeat IPC: 1.58148 cumulative IPC: 1.58043 (Simulation time: 0 hr 6 min 53 sec) 
Heartbeat CPU 0 instructions: 5000003 cycles: 3163425 heartbeat IPC: 1.58111 cumulative IPC: 1.58057 (Simulation time: 0 hr 8 min 37 sec) 
Heartbeat CPU 0 instructions: 6000002 cycles: 3795793 heartbeat IPC: 1.58136 cumulative IPC: 1.5807 (Simulation time: 0 hr 10 min 29 sec) 
Heartbeat CPU 0 instructions: 7000001 cycles: 4428759 heartbeat IPC: 1.57986 cumulative IPC: 1.58058 (Simulation time: 0 hr 12 min 19 sec) 
Heartbeat CPU 0 instructions: 8000000 cycles: 5061662 heartbeat IPC: 1.58002 cumulative IPC: 1.58051 (Simulation time: 0 hr 14 min 16 sec) 
Heartbeat CPU 0 instructions: 9000001 cycles: 5694550 heartbeat IPC: 1.58006 cumulative IPC: 1.58046 (Simulation time: 0 hr 16 min 13 sec) 
Heartbeat CPU 0 instructions: 10000002 cycles: 6326997 heartbeat IPC: 1.58116 cumulative IPC: 1.58053 (Simulation time: 0 hr 18 min 9 sec) 

Warmup complete CPU 0 instructions: 10000002 cycles: 6326997 (Simulation time: 0 hr 18 min 9 sec) 

Heartbeat CPU 0 instructions: 11000001 cycles: 9857971 heartbeat IPC: 0.283208 cumulative IPC: 0.283208 (Simulation time: 0 hr 21 min 3 sec) 
Heartbeat CPU 0 instructions: 12000000 cycles: 13388261 heartbeat IPC: 0.283263 cumulative IPC: 0.283235 (Simulation time: 0 hr 23 min 53 sec) 
Heartbeat CPU 0 instructions: 13000002 cycles: 16938673 heartbeat IPC: 0.281658 cumulative IPC: 0.282707 (Simulation time: 0 hr 26 min 45 sec) 
Heartbeat CPU 0 instructions: 14000002 cycles: 20455166 heartbeat IPC: 0.284374 cumulative IPC: 0.283122 (Simulation time: 0 hr 29 min 36 sec) 
Heartbeat CPU 0 instructions: 15000000 cycles: 23932154 heartbeat IPC: 0.287605 cumulative IPC: 0.284008 (Simulation time: 0 hr 32 min 33 sec) 
Heartbeat CPU 0 instructions: 16000000 cycles: 27441514 heartbeat IPC: 0.284952 cumulative IPC: 0.284165 (Simulation time: 0 hr 35 min 24 sec) 
Heartbeat CPU 0 instructions: 17000000 cycles: 30927716 heartbeat IPC: 0.286845 cumulative IPC: 0.284544 (Simulation time: 0 hr 38 min 12 sec) 
Heartbeat CPU 0 instructions: 18000001 cycles: 34506995 heartbeat IPC: 0.279386 cumulative IPC: 0.283889 (Simulation time: 0 hr 41 min 1 sec) 
Heartbeat CPU 0 instructions: 19000000 cycles: 37995278 heartbeat IPC: 0.286674 cumulative IPC: 0.284196 (Simulation time: 0 hr 43 min 29 sec) 
Heartbeat CPU 0 instructions: 20000000 cycles: 41507552 heartbeat IPC: 0.284716 cumulative IPC: 0.284248 (Simulation time: 0 hr 46 min 7 sec) 
Heartbeat CPU 0 instructions: 21000003 cycles: 45034408 heartbeat IPC: 0.28354 cumulative IPC: 0.284183 (Simulation time: 0 hr 49 min 12 sec) 
Heartbeat CPU 0 instructions: 22000001 cycles: 48549953 heartbeat IPC: 0.28445 cumulative IPC: 0.284206 (Simulation time: 0 hr 52 min 19 sec) 
Heartbeat CPU 0 instructions: 23000002 cycles: 52020657 heartbeat IPC: 0.288126 cumulative IPC: 0.284503 (Simulation time: 0 hr 54 min 55 sec) 
Heartbeat CPU 0 instructions: 24000000 cycles: 55602615 heartbeat IPC: 0.279176 cumulative IPC: 0.284116 (Simulation time: 0 hr 57 min 27 sec) 
Heartbeat CPU 0 instructions: 25000000 cycles: 59141900 heartbeat IPC: 0.282543 cumulative IPC: 0.284011 (Simulation time: 0 hr 59 min 53 sec) 
Heartbeat CPU 0 instructions: 26000002 cycles: 62653045 heartbeat IPC: 0.284808 cumulative IPC: 0.28406 (Simulation time: 1 hr 2 min 34 sec) 
Heartbeat CPU 0 instructions: 27000002 cycles: 66209215 heartbeat IPC: 0.281201 cumulative IPC: 0.283891 (Simulation time: 1 hr 5 min 41 sec) 
Heartbeat CPU 0 instructions: 28000000 cycles: 69707269 heartbeat IPC: 0.285873 cumulative IPC: 0.284 (Simulation time: 1 hr 8 min 34 sec) 
Heartbeat CPU 0 instructions: 29000001 cycles: 73203731 heartbeat IPC: 0.286004 cumulative IPC: 0.284105 (Simulation time: 1 hr 11 min 51 sec) 
Heartbeat CPU 0 instructions: 30000002 cycles: 76686149 heartbeat IPC: 0.287157 cumulative IPC: 0.284256 (Simulation time: 1 hr 15 min 12 sec) 
Heartbeat CPU 0 instructions: 31000000 cycles: 80244599 heartbeat IPC: 0.281021 cumulative IPC: 0.2841 (Simulation time: 1 hr 18 min 35 sec) 
Heartbeat CPU 0 instructions: 32000000 cycles: 83786176 heartbeat IPC: 0.28236 cumulative IPC: 0.284021 (Simulation time: 1 hr 21 min 54 sec) 
Heartbeat CPU 0 instructions: 33000000 cycles: 87280944 heartbeat IPC: 0.286142 cumulative IPC: 0.284112 (Simulation time: 1 hr 25 min 20 sec) 
Heartbeat CPU 0 instructions: 34000002 cycles: 90763844 heartbeat IPC: 0.287118 cumulative IPC: 0.284236 (Simulation time: 1 hr 28 min 46 sec) 
Heartbeat CPU 0 instructions: 35000000 cycles: 94283958 heartbeat IPC: 0.284081 cumulative IPC: 0.28423 (Simulation time: 1 hr 32 min 2 sec) 
Heartbeat CPU 0 instructions: 36000000 cycles: 97805853 heartbeat IPC: 0.283938 cumulative IPC: 0.284219 (Simulation time: 1 hr 34 min 58 sec) 
Heartbeat CPU 0 instructions: 37000001 cycles: 101273861 heartbeat IPC: 0.28835 cumulative IPC: 0.28437 (Simulation time: 1 hr 37 min 55 sec) 
Heartbeat CPU 0 instructions: 38000002 cycles: 104740737 heartbeat IPC: 0.288444 cumulative IPC: 0.284513 (Simulation time: 1 hr 40 min 34 sec) 
Heartbeat CPU 0 instructions: 39000000 cycles: 108315092 heartbeat IPC: 0.27977 cumulative IPC: 0.284347 (Simulation time: 1 hr 43 min 17 sec) 
Heartbeat CPU 0 instructions: 40000000 cycles: 111792616 heartbeat IPC: 0.287561 cumulative IPC: 0.284453 (Simulation time: 1 hr 45 min 54 sec) 
Heartbeat CPU 0 instructions: 41000003 cycles: 115282879 heartbeat IPC: 0.286512 cumulative IPC: 0.284519 (Simulation time: 1 hr 48 min 43 sec) 
Heartbeat CPU 0 instructions: 42000000 cycles: 118796296 heartbeat IPC: 0.284622 cumulative IPC: 0.284522 (Simulation time: 1 hr 51 min 27 sec) 
Heartbeat CPU 0 instructions: 43000001 cycles: 122329851 heartbeat IPC: 0.283001 cumulative IPC: 0.284476 (Simulation time: 1 hr 54 min 14 sec) 
Heartbeat CPU 0 instructions: 44000000 cycles: 125825101 heartbeat IPC: 0.286102 cumulative IPC: 0.284523 (Simulation time: 1 hr 56 min 50 sec) 
Heartbeat CPU 0 instructions: 45000003 cycles: 129298624 heartbeat IPC: 0.287893 cumulative IPC: 0.284618 (Simulation time: 1 hr 59 min 15 sec) 
Heartbeat CPU 0 instructions: 46000000 cycles: 132769819 heartbeat IPC: 0.288084 cumulative IPC: 0.284714 (Simulation time: 2 hr 1 min 51 sec) 
Heartbeat CPU 0 instructions: 47000000 cycles: 136286804 heartbeat IPC: 0.284334 cumulative IPC: 0.284703 (Simulation time: 2 hr 4 min 21 sec) 
Heartbeat CPU 0 instructions: 48000000 cycles: 139787301 heartbeat IPC: 0.285674 cumulative IPC: 0.284729 (Simulation time: 2 hr 6 min 54 sec) 
Heartbeat CPU 0 instructions: 49000002 cycles: 143267353 heartbeat IPC: 0.287353 cumulative IPC: 0.284796 (Simulation time: 2 hr 9 min 20 sec) 
Heartbeat CPU 0 instructions: 50000001 cycles: 146775248 heartbeat IPC: 0.285071 cumulative IPC: 0.284802 (Simulation time: 2 hr 11 min 54 sec) 
Heartbeat CPU 0 instructions: 51000002 cycles: 150274935 heartbeat IPC: 0.28574 cumulative IPC: 0.284825 (Simulation time: 2 hr 14 min 21 sec) 
Heartbeat CPU 0 instructions: 52000000 cycles: 153770600 heartbeat IPC: 0.286068 cumulative IPC: 0.284855 (Simulation time: 2 hr 16 min 56 sec) 
Heartbeat CPU 0 instructions: 53000000 cycles: 157334981 heartbeat IPC: 0.280554 cumulative IPC: 0.284753 (Simulation time: 2 hr 19 min 36 sec) 
Heartbeat CPU 0 instructions: 54000000 cycles: 160798789 heartbeat IPC: 0.2887 cumulative IPC: 0.284842 (Simulation time: 2 hr 22 min 17 sec) 
Heartbeat CPU 0 instructions: 55000003 cycles: 164240254 heartbeat IPC: 0.290575 cumulative IPC: 0.284967 (Simulation time: 2 hr 24 min 47 sec) 
Heartbeat CPU 0 instructions: 56000000 cycles: 167776855 heartbeat IPC: 0.282757 cumulative IPC: 0.284918 (Simulation time: 2 hr 27 min 12 sec) 
Heartbeat CPU 0 instructions: 57000000 cycles: 171369685 heartbeat IPC: 0.278332 cumulative IPC: 0.284775 (Simulation time: 2 hr 29 min 30 sec) 
Heartbeat CPU 0 instructions: 58000001 cycles: 174886877 heartbeat IPC: 0.284318 cumulative IPC: 0.284765 (Simulation time: 2 hr 31 min 27 sec) 
Heartbeat CPU 0 instructions: 59000002 cycles: 178407435 heartbeat IPC: 0.284046 cumulative IPC: 0.284751 (Simulation time: 2 hr 33 min 23 sec) 
Heartbeat CPU 0 instructions: 60000000 cycles: 181962675 heartbeat IPC: 0.281274 cumulative IPC: 0.28468 (Simulation time: 2 hr 35 min 8 sec) 
Heartbeat CPU 0 instructions: 61000003 cycles: 185441296 heartbeat IPC: 0.287471 cumulative IPC: 0.284734 (Simulation time: 2 hr 36 min 41 sec) 
Heartbeat CPU 0 instructions: 62000002 cycles: 188918715 heartbeat IPC: 0.287569 cumulative IPC: 0.284788 (Simulation time: 2 hr 38 min 13 sec) 
Heartbeat CPU 0 instructions: 63000001 cycles: 192425748 heartbeat IPC: 0.285141 cumulative IPC: 0.284795 (Simulation time: 2 hr 39 min 40 sec) 
Heartbeat CPU 0 instructions: 64000000 cycles: 195979309 heartbeat IPC: 0.281408 cumulative IPC: 0.284732 (Simulation time: 2 hr 41 min 8 sec) 
Heartbeat CPU 0 instructions: 65000002 cycles: 199529891 heartbeat IPC: 0.281645 cumulative IPC: 0.284675 (Simulation time: 2 hr 42 min 29 sec) 
Heartbeat CPU 0 instructions: 66000002 cycles: 203023979 heartbeat IPC: 0.286198 cumulative IPC: 0.284702 (Simulation time: 2 hr 43 min 52 sec) 
Heartbeat CPU 0 instructions: 67000000 cycles: 206520602 heartbeat IPC: 0.28599 cumulative IPC: 0.284724 (Simulation time: 2 hr 45 min 11 sec) 
Heartbeat CPU 0 instructions: 68000000 cycles: 210006490 heartbeat IPC: 0.286871 cumulative IPC: 0.284761 (Simulation time: 2 hr 46 min 36 sec) 
Heartbeat CPU 0 instructions: 69000001 cycles: 213480081 heartbeat IPC: 0.287887 cumulative IPC: 0.284814 (Simulation time: 2 hr 47 min 53 sec) 
Heartbeat CPU 0 instructions: 70000002 cycles: 217012740 heartbeat IPC: 0.283073 cumulative IPC: 0.284784 (Simulation time: 2 hr 49 min 10 sec) 
Heartbeat CPU 0 instructions: 71000002 cycles: 220417602 heartbeat IPC: 0.293698 cumulative IPC: 0.284926 (Simulation time: 2 hr 50 min 14 sec) 
Heartbeat CPU 0 instructions: 72000000 cycles: 223255482 heartbeat IPC: 0.352375 cumulative IPC: 0.285808 (Simulation time: 2 hr 51 min 21 sec) 
Heartbeat CPU 0 instructions: 73000000 cycles: 226075339 heartbeat IPC: 0.354628 cumulative IPC: 0.286692 (Simulation time: 2 hr 52 min 22 sec) 
Heartbeat CPU 0 instructions: 74000000 cycles: 228924373 heartbeat IPC: 0.350996 cumulative IPC: 0.287515 (Simulation time: 2 hr 53 min 14 sec) 
Heartbeat CPU 0 instructions: 75000003 cycles: 231757479 heartbeat IPC: 0.352971 cumulative IPC: 0.288337 (Simulation time: 2 hr 54 min 0 sec) 
Heartbeat CPU 0 instructions: 76000000 cycles: 234587461 heartbeat IPC: 0.353358 cumulative IPC: 0.289143 (Simulation time: 2 hr 54 min 46 sec) 
Heartbeat CPU 0 instructions: 77000000 cycles: 237411729 heartbeat IPC: 0.354074 cumulative IPC: 0.289937 (Simulation time: 2 hr 55 min 33 sec) 
Heartbeat CPU 0 instructions: 78000001 cycles: 240188852 heartbeat IPC: 0.360085 cumulative IPC: 0.29077 (Simulation time: 2 hr 56 min 15 sec) 
Heartbeat CPU 0 instructions: 79000003 cycles: 242713241 heartbeat IPC: 0.396136 cumulative IPC: 0.291895 (Simulation time: 2 hr 56 min 53 sec) 
Heartbeat CPU 0 instructions: 80000000 cycles: 245303107 heartbeat IPC: 0.386119 cumulative IPC: 0.292916 (Simulation time: 2 hr 57 min 33 sec) 
Heartbeat CPU 0 instructions: 81000001 cycles: 247901104 heartbeat IPC: 0.384912 cumulative IPC: 0.293906 (Simulation time: 2 hr 58 min 5 sec) 
Heartbeat CPU 0 instructions: 82000000 cycles: 250476870 heartbeat IPC: 0.388234 cumulative IPC: 0.294901 (Simulation time: 2 hr 58 min 36 sec) 
Heartbeat CPU 0 instructions: 83000000 cycles: 253059529 heartbeat IPC: 0.387198 cumulative IPC: 0.295867 (Simulation time: 2 hr 59 min 7 sec) 
Heartbeat CPU 0 instructions: 84000000 cycles: 255651626 heartbeat IPC: 0.385788 cumulative IPC: 0.296802 (Simulation time: 2 hr 59 min 38 sec) 
Heartbeat CPU 0 instructions: 85000000 cycles: 258242106 heartbeat IPC: 0.386029 cumulative IPC: 0.297719 (Simulation time: 3 hr 0 min 4 sec) 
Heartbeat CPU 0 instructions: 86000000 cycles: 260823176 heartbeat IPC: 0.387436 cumulative IPC: 0.298629 (Simulation time: 3 hr 0 min 27 sec) 
Heartbeat CPU 0 instructions: 87000001 cycles: 263399041 heartbeat IPC: 0.38822 cumulative IPC: 0.299527 (Simulation time: 3 hr 0 min 49 sec) 
Heartbeat CPU 0 instructions: 88000000 cycles: 265956884 heartbeat IPC: 0.390954 cumulative IPC: 0.300428 (Simulation time: 3 hr 1 min 7 sec) 
Heartbeat CPU 0 instructions: 89000003 cycles: 268549094 heartbeat IPC: 0.385772 cumulative IPC: 0.301271 (Simulation time: 3 hr 1 min 22 sec) 
Heartbeat CPU 0 instructions: 90000000 cycles: 271127159 heartbeat IPC: 0.387887 cumulative IPC: 0.302115 (Simulation time: 3 hr 1 min 37 sec) 
Heartbeat CPU 0 instructions: 91000001 cycles: 273694488 heartbeat IPC: 0.38951 cumulative IPC: 0.302954 (Simulation time: 3 hr 1 min 51 sec) 
Heartbeat CPU 0 instructions: 92000000 cycles: 276287363 heartbeat IPC: 0.385672 cumulative IPC: 0.303748 (Simulation time: 3 hr 2 min 3 sec) 
Heartbeat CPU 0 instructions: 93000003 cycles: 278851135 heartbeat IPC: 0.390051 cumulative IPC: 0.30456 (Simulation time: 3 hr 2 min 15 sec) 
Heartbeat CPU 0 instructions: 94000002 cycles: 281408269 heartbeat IPC: 0.391062 cumulative IPC: 0.305364 (Simulation time: 3 hr 2 min 25 sec) 
Heartbeat CPU 0 instructions: 95000001 cycles: 284022326 heartbeat IPC: 0.382547 cumulative IPC: 0.306091 (Simulation time: 3 hr 2 min 34 sec) 
Heartbeat CPU 0 instructions: 96000000 cycles: 286603975 heartbeat IPC: 0.387349 cumulative IPC: 0.306839 (Simulation time: 3 hr 2 min 42 sec) 
Heartbeat CPU 0 instructions: 97000002 cycles: 289185487 heartbeat IPC: 0.387371 cumulative IPC: 0.307574 (Simulation time: 3 hr 2 min 50 sec) 
Heartbeat CPU 0 instructions: 98000000 cycles: 291730487 heartbeat IPC: 0.392927 cumulative IPC: 0.308335 (Simulation time: 3 hr 3 min 0 sec) 
Heartbeat CPU 0 instructions: 99000001 cycles: 294320473 heartbeat IPC: 0.386103 cumulative IPC: 0.309035 (Simulation time: 3 hr 3 min 9 sec) 
Heartbeat CPU 0 instructions: 100000000 cycles: 296903054 heartbeat IPC: 0.387209 cumulative IPC: 0.30973 (Simulation time: 3 hr 3 min 17 sec) 
Heartbeat CPU 0 instructions: 101000001 cycles: 299481701 heartbeat IPC: 0.387801 cumulative IPC: 0.310416 (Simulation time: 3 hr 3 min 25 sec) 
Heartbeat CPU 0 instructions: 102000002 cycles: 302049573 heartbeat IPC: 0.389428 cumulative IPC: 0.311102 (Simulation time: 3 hr 3 min 32 sec) 
Heartbeat CPU 0 instructions: 103000000 cycles: 304584472 heartbeat IPC: 0.394492 cumulative IPC: 0.311811 (Simulation time: 3 hr 3 min 39 sec) 
Heartbeat CPU 0 instructions: 104000000 cycles: 307151886 heartbeat IPC: 0.389497 cumulative IPC: 0.312474 (Simulation time: 3 hr 3 min 45 sec) 
Heartbeat CPU 0 instructions: 105000000 cycles: 309708419 heartbeat IPC: 0.391155 cumulative IPC: 0.313137 (Simulation time: 3 hr 3 min 51 sec) 
Heartbeat CPU 0 instructions: 106000002 cycles: 312255126 heartbeat IPC: 0.392665 cumulative IPC: 0.313799 (Simulation time: 3 hr 3 min 57 sec) 
Heartbeat CPU 0 instructions: 107000000 cycles: 314833824 heartbeat IPC: 0.387792 cumulative IPC: 0.314418 (Simulation time: 3 hr 4 min 3 sec) 
Heartbeat CPU 0 instructions: 108000000 cycles: 317387884 heartbeat IPC: 0.391533 cumulative IPC: 0.315051 (Simulation time: 3 hr 4 min 9 sec) 
Heartbeat CPU 0 instructions: 109000003 cycles: 319965371 heartbeat IPC: 0.387976 cumulative IPC: 0.31565 (Simulation time: 3 hr 4 min 15 sec) 
Heartbeat CPU 0 instructions: 110000001 cycles: 322541038 heartbeat IPC: 0.388248 cumulative IPC: 0.316242 (Simulation time: 3 hr 4 min 20 sec) 
Finished CPU 0 instructions: 100000003 cycles: 316214042 cummulative IPC: 0.316241 (Simulation time: 3 hr 4 min 20 sec) 

ChampSim completed all CPUs

Region of Interest Statistics

CPU 0 cummulative IPC: 0.316241 instructions: 100000003 cycles: 316214042
LLC TOTAL     ACCESS:    4687840  HIT:     159124  MISS:    4528716
LLC LOAD      ACCESS:    3310966  HIT:     148848  MISS:    3162118
LLC RFO       ACCESS:         20  HIT:          0  MISS:         20
LLC PREFETCH  ACCESS:          0  HIT:          0  MISS:          0
LLC WRITEBACK ACCESS:    1376854  HIT:      10276  MISS:    1366578
