
*** ChampSim Multicore Out-of-Order Simulator ***

Warmup Instructions: 10000000
Simulation Instructions: 100000000
Configuration: 1
Number of CPUs: 1
LLC sets: 2048
LLC ways: 16
Off-chip DRAM Channels: 1 Width: 64-bit Data Rate: 1600 MT/s

CPU 0 runs /datasets/cs240c-wi22-a00-public/data/Assignment2-gz/mcf_158B.trace.gz
config 1, num_core 1, llc_sets 2048
Heartbeat CPU 0 instructions: 1000002 cycles: 496818 heartbeat IPC: 2.01281 cumulative IPC: 2.01281 (Simulation time: 0 hr 1 min 45 sec) 
Heartbeat CPU 0 instructions: 2000002 cycles: 992454 heartbeat IPC: 2.01761 cumulative IPC: 2.01521 (Simulation time: 0 hr 3 min 20 sec) 
Heartbeat CPU 0 instructions: 3000000 cycles: 1488664 heartbeat IPC: 2.01527 cumulative IPC: 2.01523 (Simulation time: 0 hr 4 min 58 sec) 
Heartbeat CPU 0 instructions: 4000000 cycles: 1983637 heartbeat IPC: 2.02031 cumulative IPC: 2.0165 (Simulation time: 0 hr 6 min 38 sec) 
Heartbeat CPU 0 instructions: 5000002 cycles: 2477222 heartbeat IPC: 2.026 cumulative IPC: 2.01839 (Simulation time: 0 hr 8 min 12 sec) 
Heartbeat CPU 0 instructions: 6000001 cycles: 2976269 heartbeat IPC: 2.00382 cumulative IPC: 2.01595 (Simulation time: 0 hr 9 min 49 sec) 
Heartbeat CPU 0 instructions: 7000001 cycles: 3470987 heartbeat IPC: 2.02135 cumulative IPC: 2.01672 (Simulation time: 0 hr 11 min 28 sec) 
Heartbeat CPU 0 instructions: 8000000 cycles: 3967010 heartbeat IPC: 2.01603 cumulative IPC: 2.01663 (Simulation time: 0 hr 13 min 7 sec) 
Heartbeat CPU 0 instructions: 9000000 cycles: 4473580 heartbeat IPC: 1.97406 cumulative IPC: 2.01181 (Simulation time: 0 hr 14 min 47 sec) 
Heartbeat CPU 0 instructions: 10000001 cycles: 4998330 heartbeat IPC: 1.90567 cumulative IPC: 2.00067 (Simulation time: 0 hr 16 min 23 sec) 

Warmup complete CPU 0 instructions: 10000001 cycles: 4998330 (Simulation time: 0 hr 16 min 23 sec) 

Heartbeat CPU 0 instructions: 11000000 cycles: 17476246 heartbeat IPC: 0.0801415 cumulative IPC: 0.0801415 (Simulation time: 0 hr 18 min 58 sec) 
Heartbeat CPU 0 instructions: 12000000 cycles: 28981210 heartbeat IPC: 0.086919 cumulative IPC: 0.0833928 (Simulation time: 0 hr 21 min 31 sec) 
Heartbeat CPU 0 instructions: 13000001 cycles: 40692109 heartbeat IPC: 0.0853906 cumulative IPC: 0.0840483 (Simulation time: 0 hr 23 min 55 sec) 
Heartbeat CPU 0 instructions: 14000001 cycles: 51414649 heartbeat IPC: 0.0932615 cumulative IPC: 0.0861766 (Simulation time: 0 hr 26 min 17 sec) 
Heartbeat CPU 0 instructions: 15000000 cycles: 63104254 heartbeat IPC: 0.085546 cumulative IPC: 0.0860497 (Simulation time: 0 hr 28 min 42 sec) 
Heartbeat CPU 0 instructions: 16000000 cycles: 79169689 heartbeat IPC: 0.0622454 cumulative IPC: 0.0808937 (Simulation time: 0 hr 31 min 59 sec) 
Heartbeat CPU 0 instructions: 17000001 cycles: 92040310 heartbeat IPC: 0.0776964 cumulative IPC: 0.080421 (Simulation time: 0 hr 34 min 41 sec) 
Heartbeat CPU 0 instructions: 18000000 cycles: 103810866 heartbeat IPC: 0.0849577 cumulative IPC: 0.0809614 (Simulation time: 0 hr 37 min 12 sec) 
Heartbeat CPU 0 instructions: 19000001 cycles: 116394086 heartbeat IPC: 0.079471 cumulative IPC: 0.080793 (Simulation time: 0 hr 39 min 45 sec) 
Heartbeat CPU 0 instructions: 20000000 cycles: 128543487 heartbeat IPC: 0.0823085 cumulative IPC: 0.0809421 (Simulation time: 0 hr 42 min 19 sec) 
Heartbeat CPU 0 instructions: 21000000 cycles: 140593334 heartbeat IPC: 0.0829886 cumulative IPC: 0.0811239 (Simulation time: 0 hr 44 min 50 sec) 
Heartbeat CPU 0 instructions: 22000002 cycles: 152986936 heartbeat IPC: 0.080687 cumulative IPC: 0.0810873 (Simulation time: 0 hr 47 min 20 sec) 
Heartbeat CPU 0 instructions: 23000002 cycles: 166159854 heartbeat IPC: 0.0759133 cumulative IPC: 0.0806644 (Simulation time: 0 hr 50 min 6 sec) 
Heartbeat CPU 0 instructions: 24000000 cycles: 181727195 heartbeat IPC: 0.0642369 cumulative IPC: 0.0792174 (Simulation time: 0 hr 52 min 57 sec) 
Heartbeat CPU 0 instructions: 25000000 cycles: 192936826 heartbeat IPC: 0.089209 cumulative IPC: 0.0798133 (Simulation time: 0 hr 55 min 12 sec) 
Heartbeat CPU 0 instructions: 26000000 cycles: 202259052 heartbeat IPC: 0.107271 cumulative IPC: 0.0811109 (Simulation time: 0 hr 57 min 18 sec) 
Heartbeat CPU 0 instructions: 27000002 cycles: 211814489 heartbeat IPC: 0.104653 cumulative IPC: 0.0821986 (Simulation time: 0 hr 59 min 26 sec) 
Heartbeat CPU 0 instructions: 28000000 cycles: 227002959 heartbeat IPC: 0.0658393 cumulative IPC: 0.0810794 (Simulation time: 1 hr 2 min 36 sec) 
Heartbeat CPU 0 instructions: 29000003 cycles: 236944543 heartbeat IPC: 0.100588 cumulative IPC: 0.0819155 (Simulation time: 1 hr 4 min 58 sec) 
Heartbeat CPU 0 instructions: 30000003 cycles: 245392116 heartbeat IPC: 0.118377 cumulative IPC: 0.0831968 (Simulation time: 1 hr 7 min 8 sec) 
Heartbeat CPU 0 instructions: 31000003 cycles: 254866505 heartbeat IPC: 0.105548 cumulative IPC: 0.0840443 (Simulation time: 1 hr 9 min 27 sec) 
Heartbeat CPU 0 instructions: 32000000 cycles: 269804537 heartbeat IPC: 0.066943 cumulative IPC: 0.0830796 (Simulation time: 1 hr 12 min 34 sec) 
Heartbeat CPU 0 instructions: 33000000 cycles: 278921667 heartbeat IPC: 0.109684 cumulative IPC: 0.0839651 (Simulation time: 1 hr 14 min 47 sec) 
Heartbeat CPU 0 instructions: 34000000 cycles: 288695807 heartbeat IPC: 0.102311 cumulative IPC: 0.0845972 (Simulation time: 1 hr 17 min 7 sec) 
Heartbeat CPU 0 instructions: 35000001 cycles: 299183473 heartbeat IPC: 0.0953502 cumulative IPC: 0.0849805 (Simulation time: 1 hr 19 min 31 sec) 
Heartbeat CPU 0 instructions: 36000000 cycles: 314997202 heartbeat IPC: 0.0632361 cumulative IPC: 0.0838713 (Simulation time: 1 hr 22 min 51 sec) 
Heartbeat CPU 0 instructions: 37000001 cycles: 325575642 heartbeat IPC: 0.094532 cumulative IPC: 0.0842231 (Simulation time: 1 hr 25 min 16 sec) 
Heartbeat CPU 0 instructions: 38000000 cycles: 336038774 heartbeat IPC: 0.0955736 cumulative IPC: 0.0845818 (Simulation time: 1 hr 27 min 39 sec) 
Heartbeat CPU 0 instructions: 39000000 cycles: 344808513 heartbeat IPC: 0.114028 cumulative IPC: 0.0853418 (Simulation time: 1 hr 29 min 44 sec) 
Heartbeat CPU 0 instructions: 40000000 cycles: 359562982 heartbeat IPC: 0.0677761 cumulative IPC: 0.0846108 (Simulation time: 1 hr 32 min 53 sec) 
Heartbeat CPU 0 instructions: 41000003 cycles: 369451242 heartbeat IPC: 0.10113 cumulative IPC: 0.085059 (Simulation time: 1 hr 35 min 11 sec) 
Heartbeat CPU 0 instructions: 42000000 cycles: 377975983 heartbeat IPC: 0.117305 cumulative IPC: 0.085796 (Simulation time: 1 hr 37 min 16 sec) 
Heartbeat CPU 0 instructions: 43000001 cycles: 389383436 heartbeat IPC: 0.0876621 cumulative IPC: 0.0858514 (Simulation time: 1 hr 39 min 49 sec) 
Heartbeat CPU 0 instructions: 44000000 cycles: 402104174 heartbeat IPC: 0.0786117 cumulative IPC: 0.0856195 (Simulation time: 1 hr 42 min 36 sec) 
Heartbeat CPU 0 instructions: 45000000 cycles: 409638106 heartbeat IPC: 0.132733 cumulative IPC: 0.0864967 (Simulation time: 1 hr 44 min 32 sec) 
Heartbeat CPU 0 instructions: 46000002 cycles: 420600493 heartbeat IPC: 0.0912212 cumulative IPC: 0.0866213 (Simulation time: 1 hr 47 min 0 sec) 
Heartbeat CPU 0 instructions: 47000002 cycles: 433376118 heartbeat IPC: 0.0782741 cumulative IPC: 0.0863724 (Simulation time: 1 hr 49 min 52 sec) 
Heartbeat CPU 0 instructions: 48000000 cycles: 441161891 heartbeat IPC: 0.128439 cumulative IPC: 0.0871233 (Simulation time: 1 hr 52 min 1 sec) 
Heartbeat CPU 0 instructions: 49000003 cycles: 452166117 heartbeat IPC: 0.0908744 cumulative IPC: 0.0872156 (Simulation time: 1 hr 54 min 38 sec) 
Heartbeat CPU 0 instructions: 50000000 cycles: 465069808 heartbeat IPC: 0.077497 cumulative IPC: 0.086943 (Simulation time: 1 hr 57 min 31 sec) 
Heartbeat CPU 0 instructions: 51000000 cycles: 472550443 heartbeat IPC: 0.133678 cumulative IPC: 0.0876908 (Simulation time: 1 hr 59 min 32 sec) 
Heartbeat CPU 0 instructions: 52000000 cycles: 482875686 heartbeat IPC: 0.09685 cumulative IPC: 0.0878887 (Simulation time: 2 hr 2 min 0 sec) 
Heartbeat CPU 0 instructions: 53000000 cycles: 496679811 heartbeat IPC: 0.0724421 cumulative IPC: 0.087455 (Simulation time: 2 hr 5 min 11 sec) 
Heartbeat CPU 0 instructions: 54000000 cycles: 504457205 heartbeat IPC: 0.128578 cumulative IPC: 0.0880953 (Simulation time: 2 hr 7 min 17 sec) 
Heartbeat CPU 0 instructions: 55000000 cycles: 513557383 heartbeat IPC: 0.109888 cumulative IPC: 0.0884853 (Simulation time: 2 hr 9 min 44 sec) 
Heartbeat CPU 0 instructions: 56000000 cycles: 528316219 heartbeat IPC: 0.067756 cumulative IPC: 0.0879007 (Simulation time: 2 hr 12 min 51 sec) 
Heartbeat CPU 0 instructions: 57000001 cycles: 535811412 heartbeat IPC: 0.133419 cumulative IPC: 0.0885434 (Simulation time: 2 hr 14 min 52 sec) 
Heartbeat CPU 0 instructions: 58000000 cycles: 543334821 heartbeat IPC: 0.132918 cumulative IPC: 0.0891636 (Simulation time: 2 hr 16 min 55 sec) 
Heartbeat CPU 0 instructions: 59000000 cycles: 559123574 heartbeat IPC: 0.0633362 cumulative IPC: 0.0884277 (Simulation time: 2 hr 20 min 7 sec) 
Heartbeat CPU 0 instructions: 60000000 cycles: 566875006 heartbeat IPC: 0.129008 cumulative IPC: 0.0889875 (Simulation time: 2 hr 22 min 10 sec) 
Heartbeat CPU 0 instructions: 61000000 cycles: 574921331 heartbeat IPC: 0.12428 cumulative IPC: 0.0894858 (Simulation time: 2 hr 24 min 13 sec) 
Heartbeat CPU 0 instructions: 62000001 cycles: 587780250 heartbeat IPC: 0.0777671 cumulative IPC: 0.0892272 (Simulation time: 2 hr 26 min 53 sec) 
Heartbeat CPU 0 instructions: 63000001 cycles: 598649054 heartbeat IPC: 0.0920064 cumulative IPC: 0.0892781 (Simulation time: 2 hr 29 min 12 sec) 
Heartbeat CPU 0 instructions: 64000000 cycles: 605999711 heartbeat IPC: 0.136042 cumulative IPC: 0.08985 (Simulation time: 2 hr 30 min 53 sec) 
Heartbeat CPU 0 instructions: 65000000 cycles: 614300390 heartbeat IPC: 0.120472 cumulative IPC: 0.0902672 (Simulation time: 2 hr 32 min 44 sec) 
Heartbeat CPU 0 instructions: 66000000 cycles: 629274214 heartbeat IPC: 0.0667832 cumulative IPC: 0.0897039 (Simulation time: 2 hr 35 min 4 sec) 
Heartbeat CPU 0 instructions: 67000002 cycles: 636338269 heartbeat IPC: 0.141562 cumulative IPC: 0.0902842 (Simulation time: 2 hr 36 min 26 sec) 
Heartbeat CPU 0 instructions: 68000000 cycles: 643405723 heartbeat IPC: 0.141493 cumulative IPC: 0.0908511 (Simulation time: 2 hr 37 min 45 sec) 
Heartbeat CPU 0 instructions: 69000000 cycles: 656828906 heartbeat IPC: 0.074498 cumulative IPC: 0.0905143 (Simulation time: 2 hr 39 min 39 sec) 
Heartbeat CPU 0 instructions: 70000000 cycles: 666571528 heartbeat IPC: 0.102642 cumulative IPC: 0.0906929 (Simulation time: 2 hr 41 min 7 sec) 
Heartbeat CPU 0 instructions: 71000002 cycles: 673616039 heartbeat IPC: 0.141955 cumulative IPC: 0.091233 (Simulation time: 2 hr 42 min 22 sec) 
Heartbeat CPU 0 instructions: 72000000 cycles: 682400492 heartbeat IPC: 0.113837 cumulative IPC: 0.0915261 (Simulation time: 2 hr 43 min 48 sec) 
Heartbeat CPU 0 instructions: 73000000 cycles: 696855327 heartbeat IPC: 0.069181 cumulative IPC: 0.0910593 (Simulation time: 2 hr 45 min 40 sec) 
Heartbeat CPU 0 instructions: 74000000 cycles: 704164869 heartbeat IPC: 0.136807 cumulative IPC: 0.0915376 (Simulation time: 2 hr 46 min 55 sec) 
Heartbeat CPU 0 instructions: 75000002 cycles: 711693817 heartbeat IPC: 0.132821 cumulative IPC: 0.0919774 (Simulation time: 2 hr 48 min 5 sec) 
Heartbeat CPU 0 instructions: 76000000 cycles: 724338290 heartbeat IPC: 0.0790858 cumulative IPC: 0.0917508 (Simulation time: 2 hr 49 min 32 sec) 
Heartbeat CPU 0 instructions: 77000000 cycles: 735630522 heartbeat IPC: 0.0885565 cumulative IPC: 0.0917014 (Simulation time: 2 hr 50 min 43 sec) 
Heartbeat CPU 0 instructions: 78000000 cycles: 743900659 heartbeat IPC: 0.120917 cumulative IPC: 0.0920284 (Simulation time: 2 hr 51 min 44 sec) 
Heartbeat CPU 0 instructions: 79000003 cycles: 752422512 heartbeat IPC: 0.117346 cumulative IPC: 0.0923171 (Simulation time: 2 hr 52 min 50 sec) 
Heartbeat CPU 0 instructions: 80000000 cycles: 767835361 heartbeat IPC: 0.0648807 cumulative IPC: 0.0917627 (Simulation time: 2 hr 54 min 6 sec) 
Heartbeat CPU 0 instructions: 81000001 cycles: 776384612 heartbeat IPC: 0.116969 cumulative IPC: 0.0920421 (Simulation time: 2 hr 54 min 52 sec) 
Heartbeat CPU 0 instructions: 82000001 cycles: 784965980 heartbeat IPC: 0.116532 cumulative IPC: 0.0923115 (Simulation time: 2 hr 55 min 32 sec) 
Heartbeat CPU 0 instructions: 83000001 cycles: 798211634 heartbeat IPC: 0.0754965 cumulative IPC: 0.0920307 (Simulation time: 2 hr 56 min 20 sec) 
Heartbeat CPU 0 instructions: 84000000 cycles: 810173507 heartbeat IPC: 0.0835989 cumulative IPC: 0.0919055 (Simulation time: 2 hr 57 min 5 sec) 
Heartbeat CPU 0 instructions: 85000000 cycles: 817879393 heartbeat IPC: 0.129771 cumulative IPC: 0.0922644 (Simulation time: 2 hr 57 min 36 sec) 
Heartbeat CPU 0 instructions: 86000002 cycles: 826759144 heartbeat IPC: 0.112616 cumulative IPC: 0.0924843 (Simulation time: 2 hr 58 min 8 sec) 
Heartbeat CPU 0 instructions: 87000000 cycles: 841811304 heartbeat IPC: 0.0664355 cumulative IPC: 0.0920158 (Simulation time: 2 hr 58 min 50 sec) 
Heartbeat CPU 0 instructions: 88000000 cycles: 849960781 heartbeat IPC: 0.122707 cumulative IPC: 0.0923118 (Simulation time: 2 hr 59 min 17 sec) 
Heartbeat CPU 0 instructions: 89000000 cycles: 858533505 heartbeat IPC: 0.116649 cumulative IPC: 0.0925562 (Simulation time: 2 hr 59 min 41 sec) 
Heartbeat CPU 0 instructions: 90000002 cycles: 872664317 heartbeat IPC: 0.0707675 cumulative IPC: 0.0922014 (Simulation time: 3 hr 0 min 12 sec) 
Heartbeat CPU 0 instructions: 91000000 cycles: 882727794 heartbeat IPC: 0.099369 cumulative IPC: 0.0922836 (Simulation time: 3 hr 0 min 35 sec) 
Heartbeat CPU 0 instructions: 92000000 cycles: 890855705 heartbeat IPC: 0.123033 cumulative IPC: 0.0925657 (Simulation time: 3 hr 0 min 55 sec) 
Heartbeat CPU 0 instructions: 93000003 cycles: 902756184 heartbeat IPC: 0.0840305 cumulative IPC: 0.0924525 (Simulation time: 3 hr 1 min 14 sec) 
Heartbeat CPU 0 instructions: 94000000 cycles: 915205123 heartbeat IPC: 0.0803279 cumulative IPC: 0.0922867 (Simulation time: 3 hr 1 min 32 sec) 
Heartbeat CPU 0 instructions: 95000000 cycles: 923488676 heartbeat IPC: 0.120721 cumulative IPC: 0.0925432 (Simulation time: 3 hr 1 min 46 sec) 
Heartbeat CPU 0 instructions: 96000000 cycles: 932255649 heartbeat IPC: 0.114064 cumulative IPC: 0.0927466 (Simulation time: 3 hr 1 min 59 sec) 
Heartbeat CPU 0 instructions: 97000003 cycles: 947881871 heartbeat IPC: 0.0639952 cumulative IPC: 0.0922701 (Simulation time: 3 hr 2 min 16 sec) 
Heartbeat CPU 0 instructions: 98000002 cycles: 956304917 heartbeat IPC: 0.118722 cumulative IPC: 0.0925044 (Simulation time: 3 hr 2 min 26 sec) 
Heartbeat CPU 0 instructions: 99000000 cycles: 964965215 heartbeat IPC: 0.115469 cumulative IPC: 0.0927115 (Simulation time: 3 hr 2 min 33 sec) 
Heartbeat CPU 0 instructions: 100000000 cycles: 978979200 heartbeat IPC: 0.0713573 cumulative IPC: 0.0924043 (Simulation time: 3 hr 2 min 44 sec) 
Heartbeat CPU 0 instructions: 101000000 cycles: 990375077 heartbeat IPC: 0.087751 cumulative IPC: 0.0923505 (Simulation time: 3 hr 2 min 53 sec) 
Heartbeat CPU 0 instructions: 102000000 cycles: 999524104 heartbeat IPC: 0.109301 cumulative IPC: 0.0925064 (Simulation time: 3 hr 3 min 1 sec) 
Heartbeat CPU 0 instructions: 103000001 cycles: 1008264272 heartbeat IPC: 0.114414 cumulative IPC: 0.0926973 (Simulation time: 3 hr 3 min 8 sec) 
Heartbeat CPU 0 instructions: 104000000 cycles: 1024162998 heartbeat IPC: 0.0628981 cumulative IPC: 0.0922324 (Simulation time: 3 hr 3 min 20 sec) 
Heartbeat CPU 0 instructions: 105000000 cycles: 1033788609 heartbeat IPC: 0.10389 cumulative IPC: 0.0923415 (Simulation time: 3 hr 3 min 27 sec) 
Heartbeat CPU 0 instructions: 106000000 cycles: 1042928256 heartbeat IPC: 0.109413 cumulative IPC: 0.0924918 (Simulation time: 3 hr 3 min 34 sec) 
Heartbeat CPU 0 instructions: 107000000 cycles: 1054387022 heartbeat IPC: 0.0872694 cumulative IPC: 0.0924348 (Simulation time: 3 hr 3 min 42 sec) 
Heartbeat CPU 0 instructions: 108000000 cycles: 1068451317 heartbeat IPC: 0.071102 cumulative IPC: 0.0921526 (Simulation time: 3 hr 3 min 50 sec) 
Heartbeat CPU 0 instructions: 109000001 cycles: 1077461968 heartbeat IPC: 0.11098 cumulative IPC: 0.0923108 (Simulation time: 3 hr 3 min 57 sec) 
Heartbeat CPU 0 instructions: 110000000 cycles: 1087418333 heartbeat IPC: 0.100438 cumulative IPC: 0.0923856 (Simulation time: 3 hr 4 min 3 sec) 
Finished CPU 0 instructions: 100000002 cycles: 1082420005 cummulative IPC: 0.0923856 (Simulation time: 3 hr 4 min 3 sec) 

ChampSim completed all CPUs

Region of Interest Statistics

CPU 0 cummulative IPC: 0.0923856 instructions: 100000002 cycles: 1082420005
LLC TOTAL     ACCESS:   12168023  HIT:    5929277  MISS:    6238746
LLC LOAD      ACCESS:   10389154  HIT:    4741827  MISS:    5647327
LLC RFO       ACCESS:     150277  HIT:      94639  MISS:      55638
LLC PREFETCH  ACCESS:          0  HIT:          0  MISS:          0
LLC WRITEBACK ACCESS:    1628592  HIT:    1092811  MISS:     535781
