
*** ChampSim Multicore Out-of-Order Simulator ***

Warmup Instructions: 10000000
Simulation Instructions: 100000000
Configuration: 1
Number of CPUs: 1
LLC sets: 2048
LLC ways: 16
Off-chip DRAM Channels: 1 Width: 64-bit Data Rate: 1600 MT/s

CPU 0 runs /datasets/cs240c-wi22-a00-public/data/Assignment2-gz/astar_23B.trace.gz
config 1, num_core 1, llc_sets 2048
Heartbeat CPU 0 instructions: 1000000 cycles: 360083 heartbeat IPC: 2.77714 cumulative IPC: 2.77714 (Simulation time: 0 hr 1 min 22 sec) 
Heartbeat CPU 0 instructions: 2000001 cycles: 720949 heartbeat IPC: 2.77111 cumulative IPC: 2.77412 (Simulation time: 0 hr 2 min 50 sec) 
Heartbeat CPU 0 instructions: 3000000 cycles: 1079898 heartbeat IPC: 2.78591 cumulative IPC: 2.77804 (Simulation time: 0 hr 4 min 15 sec) 
Heartbeat CPU 0 instructions: 4000000 cycles: 1441359 heartbeat IPC: 2.76655 cumulative IPC: 2.77516 (Simulation time: 0 hr 5 min 39 sec) 
Heartbeat CPU 0 instructions: 5000000 cycles: 1803441 heartbeat IPC: 2.76181 cumulative IPC: 2.77248 (Simulation time: 0 hr 7 min 2 sec) 
Heartbeat CPU 0 instructions: 6000002 cycles: 2165120 heartbeat IPC: 2.76489 cumulative IPC: 2.77121 (Simulation time: 0 hr 8 min 30 sec) 
Heartbeat CPU 0 instructions: 7000002 cycles: 2526707 heartbeat IPC: 2.76559 cumulative IPC: 2.77041 (Simulation time: 0 hr 9 min 55 sec) 
Heartbeat CPU 0 instructions: 8000000 cycles: 2889615 heartbeat IPC: 2.75551 cumulative IPC: 2.76853 (Simulation time: 0 hr 11 min 25 sec) 
Heartbeat CPU 0 instructions: 9000000 cycles: 3252641 heartbeat IPC: 2.75462 cumulative IPC: 2.76698 (Simulation time: 0 hr 13 min 2 sec) 
Heartbeat CPU 0 instructions: 10000003 cycles: 3617540 heartbeat IPC: 2.74049 cumulative IPC: 2.76431 (Simulation time: 0 hr 14 min 29 sec) 

Warmup complete CPU 0 instructions: 10000003 cycles: 3617540 (Simulation time: 0 hr 14 min 29 sec) 

Heartbeat CPU 0 instructions: 11000000 cycles: 6792147 heartbeat IPC: 0.314999 cumulative IPC: 0.314999 (Simulation time: 0 hr 16 min 1 sec) 
Heartbeat CPU 0 instructions: 12000000 cycles: 9653946 heartbeat IPC: 0.349431 cumulative IPC: 0.331322 (Simulation time: 0 hr 17 min 31 sec) 
Heartbeat CPU 0 instructions: 13000002 cycles: 12375978 heartbeat IPC: 0.367373 cumulative IPC: 0.342527 (Simulation time: 0 hr 18 min 59 sec) 
Heartbeat CPU 0 instructions: 14000001 cycles: 15373106 heartbeat IPC: 0.333652 cumulative IPC: 0.340264 (Simulation time: 0 hr 20 min 29 sec) 
Heartbeat CPU 0 instructions: 15000000 cycles: 18665809 heartbeat IPC: 0.303702 cumulative IPC: 0.332264 (Simulation time: 0 hr 22 min 3 sec) 
Heartbeat CPU 0 instructions: 16000000 cycles: 21597914 heartbeat IPC: 0.341052 cumulative IPC: 0.333697 (Simulation time: 0 hr 23 min 50 sec) 
Heartbeat CPU 0 instructions: 17000002 cycles: 24326411 heartbeat IPC: 0.366503 cumulative IPC: 0.338019 (Simulation time: 0 hr 25 min 32 sec) 
Heartbeat CPU 0 instructions: 18000000 cycles: 27131490 heartbeat IPC: 0.356495 cumulative IPC: 0.340223 (Simulation time: 0 hr 27 min 10 sec) 
Heartbeat CPU 0 instructions: 19000000 cycles: 30052356 heartbeat IPC: 0.342364 cumulative IPC: 0.34046 (Simulation time: 0 hr 28 min 54 sec) 
Heartbeat CPU 0 instructions: 20000000 cycles: 33025167 heartbeat IPC: 0.336382 cumulative IPC: 0.340048 (Simulation time: 0 hr 30 min 42 sec) 
Heartbeat CPU 0 instructions: 21000001 cycles: 36070700 heartbeat IPC: 0.32835 cumulative IPC: 0.33895 (Simulation time: 0 hr 32 min 23 sec) 
Heartbeat CPU 0 instructions: 22000002 cycles: 39156759 heartbeat IPC: 0.324038 cumulative IPC: 0.337655 (Simulation time: 0 hr 33 min 59 sec) 
Heartbeat CPU 0 instructions: 23000003 cycles: 42485143 heartbeat IPC: 0.300446 cumulative IPC: 0.334469 (Simulation time: 0 hr 35 min 27 sec) 
Heartbeat CPU 0 instructions: 24000000 cycles: 45994552 heartbeat IPC: 0.284947 cumulative IPC: 0.330368 (Simulation time: 0 hr 36 min 49 sec) 
Heartbeat CPU 0 instructions: 25000000 cycles: 49861430 heartbeat IPC: 0.258607 cumulative IPC: 0.324367 (Simulation time: 0 hr 38 min 9 sec) 
Heartbeat CPU 0 instructions: 26000000 cycles: 54010472 heartbeat IPC: 0.241019 cumulative IPC: 0.317505 (Simulation time: 0 hr 39 min 29 sec) 
Heartbeat CPU 0 instructions: 27000000 cycles: 57983836 heartbeat IPC: 0.251676 cumulative IPC: 0.312694 (Simulation time: 0 hr 40 min 49 sec) 
Heartbeat CPU 0 instructions: 28000000 cycles: 61825751 heartbeat IPC: 0.260287 cumulative IPC: 0.309235 (Simulation time: 0 hr 42 min 7 sec) 
Heartbeat CPU 0 instructions: 29000000 cycles: 65358497 heartbeat IPC: 0.283066 cumulative IPC: 0.307737 (Simulation time: 0 hr 43 min 24 sec) 
Heartbeat CPU 0 instructions: 30000000 cycles: 68964933 heartbeat IPC: 0.277282 cumulative IPC: 0.306057 (Simulation time: 0 hr 44 min 42 sec) 
Heartbeat CPU 0 instructions: 31000001 cycles: 72631638 heartbeat IPC: 0.272725 cumulative IPC: 0.304286 (Simulation time: 0 hr 46 min 0 sec) 
Heartbeat CPU 0 instructions: 32000000 cycles: 76457297 heartbeat IPC: 0.261393 cumulative IPC: 0.302033 (Simulation time: 0 hr 47 min 14 sec) 
Heartbeat CPU 0 instructions: 33000001 cycles: 80500233 heartbeat IPC: 0.247345 cumulative IPC: 0.299157 (Simulation time: 0 hr 48 min 30 sec) 
Heartbeat CPU 0 instructions: 34000003 cycles: 84566247 heartbeat IPC: 0.245942 cumulative IPC: 0.296484 (Simulation time: 0 hr 49 min 52 sec) 
Heartbeat CPU 0 instructions: 35000003 cycles: 88500294 heartbeat IPC: 0.254191 cumulative IPC: 0.294524 (Simulation time: 0 hr 51 min 9 sec) 
Heartbeat CPU 0 instructions: 36000000 cycles: 92650190 heartbeat IPC: 0.240969 cumulative IPC: 0.292028 (Simulation time: 0 hr 52 min 24 sec) 
Heartbeat CPU 0 instructions: 37000000 cycles: 96943904 heartbeat IPC: 0.232899 cumulative IPC: 0.289307 (Simulation time: 0 hr 53 min 39 sec) 
Heartbeat CPU 0 instructions: 38000003 cycles: 101032900 heartbeat IPC: 0.24456 cumulative IPC: 0.287429 (Simulation time: 0 hr 54 min 51 sec) 
Heartbeat CPU 0 instructions: 39000000 cycles: 105001449 heartbeat IPC: 0.251981 cumulative IPC: 0.286041 (Simulation time: 0 hr 56 min 7 sec) 
Heartbeat CPU 0 instructions: 40000000 cycles: 108885429 heartbeat IPC: 0.257468 cumulative IPC: 0.284987 (Simulation time: 0 hr 57 min 23 sec) 
Heartbeat CPU 0 instructions: 41000003 cycles: 112654534 heartbeat IPC: 0.265316 cumulative IPC: 0.284307 (Simulation time: 0 hr 58 min 38 sec) 
Heartbeat CPU 0 instructions: 42000000 cycles: 116399259 heartbeat IPC: 0.267042 cumulative IPC: 0.283734 (Simulation time: 0 hr 59 min 51 sec) 
Heartbeat CPU 0 instructions: 43000000 cycles: 119768807 heartbeat IPC: 0.296776 cumulative IPC: 0.284112 (Simulation time: 1 hr 1 min 7 sec) 
Heartbeat CPU 0 instructions: 44000000 cycles: 123019345 heartbeat IPC: 0.307641 cumulative IPC: 0.284753 (Simulation time: 1 hr 2 min 20 sec) 
Heartbeat CPU 0 instructions: 45000001 cycles: 126392974 heartbeat IPC: 0.296417 cumulative IPC: 0.285073 (Simulation time: 1 hr 3 min 34 sec) 
Heartbeat CPU 0 instructions: 46000003 cycles: 129570995 heartbeat IPC: 0.314662 cumulative IPC: 0.28582 (Simulation time: 1 hr 4 min 46 sec) 
Heartbeat CPU 0 instructions: 47000002 cycles: 132832569 heartbeat IPC: 0.3066 cumulative IPC: 0.286344 (Simulation time: 1 hr 5 min 58 sec) 
Heartbeat CPU 0 instructions: 48000000 cycles: 136110535 heartbeat IPC: 0.305067 cumulative IPC: 0.286808 (Simulation time: 1 hr 7 min 15 sec) 
Heartbeat CPU 0 instructions: 49000003 cycles: 139496421 heartbeat IPC: 0.295345 cumulative IPC: 0.28702 (Simulation time: 1 hr 8 min 29 sec) 
Heartbeat CPU 0 instructions: 50000000 cycles: 142769859 heartbeat IPC: 0.305488 cumulative IPC: 0.287455 (Simulation time: 1 hr 9 min 43 sec) 
Heartbeat CPU 0 instructions: 51000001 cycles: 146659071 heartbeat IPC: 0.257122 cumulative IPC: 0.28663 (Simulation time: 1 hr 10 min 57 sec) 
Heartbeat CPU 0 instructions: 52000000 cycles: 150736306 heartbeat IPC: 0.245264 cumulative IPC: 0.285484 (Simulation time: 1 hr 12 min 17 sec) 
Heartbeat CPU 0 instructions: 53000000 cycles: 153658240 heartbeat IPC: 0.342239 cumulative IPC: 0.286589 (Simulation time: 1 hr 13 min 34 sec) 
Heartbeat CPU 0 instructions: 54000002 cycles: 156620033 heartbeat IPC: 0.337634 cumulative IPC: 0.287577 (Simulation time: 1 hr 14 min 55 sec) 
Heartbeat CPU 0 instructions: 55000002 cycles: 159629994 heartbeat IPC: 0.33223 cumulative IPC: 0.288438 (Simulation time: 1 hr 16 min 15 sec) 
Heartbeat CPU 0 instructions: 56000000 cycles: 162643980 heartbeat IPC: 0.331786 cumulative IPC: 0.28926 (Simulation time: 1 hr 17 min 36 sec) 
Heartbeat CPU 0 instructions: 57000000 cycles: 165502186 heartbeat IPC: 0.34987 cumulative IPC: 0.29033 (Simulation time: 1 hr 18 min 52 sec) 
Heartbeat CPU 0 instructions: 58000001 cycles: 168293599 heartbeat IPC: 0.358242 cumulative IPC: 0.291481 (Simulation time: 1 hr 20 min 11 sec) 
Heartbeat CPU 0 instructions: 59000000 cycles: 171201428 heartbeat IPC: 0.343899 cumulative IPC: 0.292391 (Simulation time: 1 hr 21 min 29 sec) 
Heartbeat CPU 0 instructions: 60000000 cycles: 173972424 heartbeat IPC: 0.360881 cumulative IPC: 0.293505 (Simulation time: 1 hr 22 min 47 sec) 
Heartbeat CPU 0 instructions: 61000000 cycles: 176647538 heartbeat IPC: 0.373816 cumulative IPC: 0.294747 (Simulation time: 1 hr 24 min 6 sec) 
Heartbeat CPU 0 instructions: 62000003 cycles: 179289903 heartbeat IPC: 0.37845 cumulative IPC: 0.296006 (Simulation time: 1 hr 25 min 25 sec) 
Heartbeat CPU 0 instructions: 63000000 cycles: 182093159 heartbeat IPC: 0.356727 cumulative IPC: 0.296959 (Simulation time: 1 hr 26 min 40 sec) 
Heartbeat CPU 0 instructions: 64000000 cycles: 184795274 heartbeat IPC: 0.37008 cumulative IPC: 0.29805 (Simulation time: 1 hr 27 min 58 sec) 
Heartbeat CPU 0 instructions: 65000000 cycles: 187392758 heartbeat IPC: 0.384988 cumulative IPC: 0.299279 (Simulation time: 1 hr 29 min 16 sec) 
Heartbeat CPU 0 instructions: 66000000 cycles: 190032753 heartbeat IPC: 0.378789 cumulative IPC: 0.300405 (Simulation time: 1 hr 30 min 32 sec) 
Heartbeat CPU 0 instructions: 67000000 cycles: 192693786 heartbeat IPC: 0.375794 cumulative IPC: 0.301466 (Simulation time: 1 hr 31 min 53 sec) 
Heartbeat CPU 0 instructions: 68000000 cycles: 195272008 heartbeat IPC: 0.387864 cumulative IPC: 0.302628 (Simulation time: 1 hr 33 min 16 sec) 
Heartbeat CPU 0 instructions: 69000000 cycles: 198028462 heartbeat IPC: 0.362785 cumulative IPC: 0.303481 (Simulation time: 1 hr 34 min 38 sec) 
Heartbeat CPU 0 instructions: 70000000 cycles: 200879172 heartbeat IPC: 0.35079 cumulative IPC: 0.304165 (Simulation time: 1 hr 35 min 53 sec) 
Heartbeat CPU 0 instructions: 71000001 cycles: 203763225 heartbeat IPC: 0.346735 cumulative IPC: 0.304778 (Simulation time: 1 hr 37 min 14 sec) 
Heartbeat CPU 0 instructions: 72000000 cycles: 206717578 heartbeat IPC: 0.338483 cumulative IPC: 0.305268 (Simulation time: 1 hr 38 min 32 sec) 
Heartbeat CPU 0 instructions: 73000001 cycles: 209549990 heartbeat IPC: 0.353056 cumulative IPC: 0.305926 (Simulation time: 1 hr 39 min 52 sec) 
Heartbeat CPU 0 instructions: 74000002 cycles: 212085938 heartbeat IPC: 0.39433 cumulative IPC: 0.307001 (Simulation time: 1 hr 41 min 9 sec) 
Heartbeat CPU 0 instructions: 75000002 cycles: 214874295 heartbeat IPC: 0.358634 cumulative IPC: 0.307682 (Simulation time: 1 hr 42 min 28 sec) 
Heartbeat CPU 0 instructions: 76000000 cycles: 217633943 heartbeat IPC: 0.362364 cumulative IPC: 0.308388 (Simulation time: 1 hr 43 min 49 sec) 
Heartbeat CPU 0 instructions: 77000000 cycles: 221027122 heartbeat IPC: 0.294709 cumulative IPC: 0.308174 (Simulation time: 1 hr 45 min 10 sec) 
Heartbeat CPU 0 instructions: 78000003 cycles: 224317315 heartbeat IPC: 0.303934 cumulative IPC: 0.308111 (Simulation time: 1 hr 46 min 32 sec) 
Heartbeat CPU 0 instructions: 79000001 cycles: 227112637 heartbeat IPC: 0.35774 cumulative IPC: 0.308732 (Simulation time: 1 hr 47 min 53 sec) 
Heartbeat CPU 0 instructions: 80000000 cycles: 230048699 heartbeat IPC: 0.340592 cumulative IPC: 0.309145 (Simulation time: 1 hr 49 min 10 sec) 
Heartbeat CPU 0 instructions: 81000001 cycles: 232962202 heartbeat IPC: 0.34323 cumulative IPC: 0.309578 (Simulation time: 1 hr 50 min 29 sec) 
Heartbeat CPU 0 instructions: 82000002 cycles: 235859379 heartbeat IPC: 0.345164 cumulative IPC: 0.310022 (Simulation time: 1 hr 51 min 52 sec) 
Heartbeat CPU 0 instructions: 83000002 cycles: 238639404 heartbeat IPC: 0.359709 cumulative IPC: 0.310609 (Simulation time: 1 hr 53 min 10 sec) 
Heartbeat CPU 0 instructions: 84000000 cycles: 241470077 heartbeat IPC: 0.353272 cumulative IPC: 0.311117 (Simulation time: 1 hr 54 min 28 sec) 
Heartbeat CPU 0 instructions: 85000000 cycles: 244337796 heartbeat IPC: 0.348709 cumulative IPC: 0.311565 (Simulation time: 1 hr 55 min 45 sec) 
Heartbeat CPU 0 instructions: 86000001 cycles: 247097011 heartbeat IPC: 0.362422 cumulative IPC: 0.312141 (Simulation time: 1 hr 57 min 1 sec) 
Heartbeat CPU 0 instructions: 87000000 cycles: 249841303 heartbeat IPC: 0.364392 cumulative IPC: 0.312724 (Simulation time: 1 hr 58 min 22 sec) 
Heartbeat CPU 0 instructions: 88000000 cycles: 252715028 heartbeat IPC: 0.34798 cumulative IPC: 0.31313 (Simulation time: 1 hr 59 min 40 sec) 
Heartbeat CPU 0 instructions: 89000000 cycles: 255557462 heartbeat IPC: 0.351811 cumulative IPC: 0.313567 (Simulation time: 2 hr 0 min 58 sec) 
Heartbeat CPU 0 instructions: 90000001 cycles: 258394079 heartbeat IPC: 0.352533 cumulative IPC: 0.314001 (Simulation time: 2 hr 2 min 15 sec) 
Heartbeat CPU 0 instructions: 91000000 cycles: 261146133 heartbeat IPC: 0.363365 cumulative IPC: 0.314528 (Simulation time: 2 hr 3 min 36 sec) 
Heartbeat CPU 0 instructions: 92000000 cycles: 264366985 heartbeat IPC: 0.310477 cumulative IPC: 0.314478 (Simulation time: 2 hr 4 min 53 sec) 
Heartbeat CPU 0 instructions: 93000000 cycles: 267200000 heartbeat IPC: 0.352981 cumulative IPC: 0.314892 (Simulation time: 2 hr 6 min 7 sec) 
Heartbeat CPU 0 instructions: 94000003 cycles: 269998905 heartbeat IPC: 0.357284 cumulative IPC: 0.315337 (Simulation time: 2 hr 7 min 22 sec) 
Heartbeat CPU 0 instructions: 95000000 cycles: 272710365 heartbeat IPC: 0.368804 cumulative IPC: 0.315876 (Simulation time: 2 hr 8 min 38 sec) 
Heartbeat CPU 0 instructions: 96000000 cycles: 275478118 heartbeat IPC: 0.361304 cumulative IPC: 0.316339 (Simulation time: 2 hr 9 min 53 sec) 
Heartbeat CPU 0 instructions: 97000000 cycles: 278193946 heartbeat IPC: 0.368212 cumulative IPC: 0.316852 (Simulation time: 2 hr 11 min 11 sec) 
Heartbeat CPU 0 instructions: 98000000 cycles: 280993236 heartbeat IPC: 0.357233 cumulative IPC: 0.317259 (Simulation time: 2 hr 12 min 29 sec) 
Heartbeat CPU 0 instructions: 99000002 cycles: 284244988 heartbeat IPC: 0.307527 cumulative IPC: 0.317146 (Simulation time: 2 hr 13 min 48 sec) 
Heartbeat CPU 0 instructions: 100000000 cycles: 287232417 heartbeat IPC: 0.334735 cumulative IPC: 0.317332 (Simulation time: 2 hr 15 min 2 sec) 
Heartbeat CPU 0 instructions: 101000000 cycles: 290420501 heartbeat IPC: 0.313668 cumulative IPC: 0.317291 (Simulation time: 2 hr 16 min 16 sec) 
Heartbeat CPU 0 instructions: 102000001 cycles: 294128771 heartbeat IPC: 0.269668 cumulative IPC: 0.316683 (Simulation time: 2 hr 17 min 34 sec) 
Heartbeat CPU 0 instructions: 103000002 cycles: 297847073 heartbeat IPC: 0.26894 cumulative IPC: 0.31608 (Simulation time: 2 hr 18 min 49 sec) 
Heartbeat CPU 0 instructions: 104000000 cycles: 301170103 heartbeat IPC: 0.30093 cumulative IPC: 0.315911 (Simulation time: 2 hr 20 min 3 sec) 
Heartbeat CPU 0 instructions: 105000001 cycles: 304215509 heartbeat IPC: 0.328364 cumulative IPC: 0.316037 (Simulation time: 2 hr 21 min 28 sec) 
Heartbeat CPU 0 instructions: 106000001 cycles: 307074660 heartbeat IPC: 0.349754 cumulative IPC: 0.316354 (Simulation time: 2 hr 22 min 47 sec) 
Heartbeat CPU 0 instructions: 107000002 cycles: 310142934 heartbeat IPC: 0.325916 cumulative IPC: 0.31645 (Simulation time: 2 hr 24 min 12 sec) 
Heartbeat CPU 0 instructions: 108000000 cycles: 313344327 heartbeat IPC: 0.312363 cumulative IPC: 0.316408 (Simulation time: 2 hr 25 min 26 sec) 
Heartbeat CPU 0 instructions: 109000003 cycles: 316669523 heartbeat IPC: 0.300735 cumulative IPC: 0.316241 (Simulation time: 2 hr 26 min 38 sec) 
Heartbeat CPU 0 instructions: 110000003 cycles: 319885775 heartbeat IPC: 0.310921 cumulative IPC: 0.316187 (Simulation time: 2 hr 27 min 53 sec) 
Finished CPU 0 instructions: 100000000 cycles: 316268235 cummulative IPC: 0.316187 (Simulation time: 2 hr 27 min 53 sec) 

ChampSim completed all CPUs

Region of Interest Statistics

CPU 0 cummulative IPC: 0.316187 instructions: 100000000 cycles: 316268235
LLC TOTAL     ACCESS:    2825474  HIT:    2575070  MISS:     250404
LLC LOAD      ACCESS:    2094621  HIT:    1857781  MISS:     236840
LLC RFO       ACCESS:      16394  HIT:      16046  MISS:        348
LLC PREFETCH  ACCESS:          0  HIT:          0  MISS:          0
LLC WRITEBACK ACCESS:     714459  HIT:     701243  MISS:      13216
