
*** ChampSim Multicore Out-of-Order Simulator ***

Warmup Instructions: 10000000
Simulation Instructions: 100000000
Configuration: 1
Number of CPUs: 1
LLC sets: 2048
LLC ways: 16
Off-chip DRAM Channels: 1 Width: 64-bit Data Rate: 1600 MT/s

CPU 0 runs /datasets/cs240c-wi22-a00-public/data/Assignment2-gz/omnetpp_340B.trace.gz
config 1, num_core 1, llc_sets 2048
Heartbeat CPU 0 instructions: 1000001 cycles: 578229 heartbeat IPC: 1.72942 cumulative IPC: 1.72942 (Simulation time: 0 hr 1 min 35 sec) 
Heartbeat CPU 0 instructions: 2000000 cycles: 1162471 heartbeat IPC: 1.71162 cumulative IPC: 1.72047 (Simulation time: 0 hr 3 min 10 sec) 
Heartbeat CPU 0 instructions: 3000001 cycles: 1760505 heartbeat IPC: 1.67215 cumulative IPC: 1.70406 (Simulation time: 0 hr 4 min 45 sec) 
Heartbeat CPU 0 instructions: 4000000 cycles: 2382206 heartbeat IPC: 1.60849 cumulative IPC: 1.67912 (Simulation time: 0 hr 6 min 22 sec) 
Heartbeat CPU 0 instructions: 5000002 cycles: 2958196 heartbeat IPC: 1.73614 cumulative IPC: 1.69022 (Simulation time: 0 hr 8 min 1 sec) 
Heartbeat CPU 0 instructions: 6000003 cycles: 3560676 heartbeat IPC: 1.65981 cumulative IPC: 1.68507 (Simulation time: 0 hr 9 min 48 sec) 
Heartbeat CPU 0 instructions: 7000003 cycles: 4210922 heartbeat IPC: 1.53788 cumulative IPC: 1.66234 (Simulation time: 0 hr 11 min 31 sec) 
Heartbeat CPU 0 instructions: 8000000 cycles: 4806595 heartbeat IPC: 1.67877 cumulative IPC: 1.66438 (Simulation time: 0 hr 13 min 12 sec) 
Heartbeat CPU 0 instructions: 9000002 cycles: 5440380 heartbeat IPC: 1.57783 cumulative IPC: 1.6543 (Simulation time: 0 hr 14 min 57 sec) 
Heartbeat CPU 0 instructions: 10000002 cycles: 6036234 heartbeat IPC: 1.67826 cumulative IPC: 1.65666 (Simulation time: 0 hr 16 min 40 sec) 

Warmup complete CPU 0 instructions: 10000002 cycles: 6036234 (Simulation time: 0 hr 16 min 40 sec) 

Heartbeat CPU 0 instructions: 11000000 cycles: 10045591 heartbeat IPC: 0.249416 cumulative IPC: 0.249416 (Simulation time: 0 hr 18 min 50 sec) 
Heartbeat CPU 0 instructions: 12000000 cycles: 13819472 heartbeat IPC: 0.264979 cumulative IPC: 0.256962 (Simulation time: 0 hr 20 min 55 sec) 
Heartbeat CPU 0 instructions: 13000000 cycles: 18080948 heartbeat IPC: 0.23466 cumulative IPC: 0.249072 (Simulation time: 0 hr 23 min 5 sec) 
Heartbeat CPU 0 instructions: 14000001 cycles: 22169956 heartbeat IPC: 0.244558 cumulative IPC: 0.247928 (Simulation time: 0 hr 25 min 12 sec) 
Heartbeat CPU 0 instructions: 15000003 cycles: 26425586 heartbeat IPC: 0.234983 cumulative IPC: 0.245226 (Simulation time: 0 hr 27 min 32 sec) 
Heartbeat CPU 0 instructions: 16000000 cycles: 31077335 heartbeat IPC: 0.214972 cumulative IPC: 0.239606 (Simulation time: 0 hr 29 min 50 sec) 
Heartbeat CPU 0 instructions: 17000000 cycles: 35210114 heartbeat IPC: 0.241968 cumulative IPC: 0.239941 (Simulation time: 0 hr 31 min 59 sec) 
Heartbeat CPU 0 instructions: 18000000 cycles: 39400774 heartbeat IPC: 0.238626 cumulative IPC: 0.239775 (Simulation time: 0 hr 34 min 15 sec) 
Heartbeat CPU 0 instructions: 19000000 cycles: 44033323 heartbeat IPC: 0.215864 cumulative IPC: 0.23686 (Simulation time: 0 hr 36 min 32 sec) 
Heartbeat CPU 0 instructions: 20000000 cycles: 48434860 heartbeat IPC: 0.227193 cumulative IPC: 0.235857 (Simulation time: 0 hr 38 min 38 sec) 
Heartbeat CPU 0 instructions: 21000000 cycles: 52063221 heartbeat IPC: 0.275607 cumulative IPC: 0.23899 (Simulation time: 0 hr 40 min 40 sec) 
Heartbeat CPU 0 instructions: 22000001 cycles: 56245438 heartbeat IPC: 0.239108 cumulative IPC: 0.239 (Simulation time: 0 hr 42 min 52 sec) 
Heartbeat CPU 0 instructions: 23000001 cycles: 60368562 heartbeat IPC: 0.242535 cumulative IPC: 0.239268 (Simulation time: 0 hr 45 min 5 sec) 
Heartbeat CPU 0 instructions: 24000000 cycles: 64487840 heartbeat IPC: 0.242761 cumulative IPC: 0.239514 (Simulation time: 0 hr 47 min 14 sec) 
Heartbeat CPU 0 instructions: 25000000 cycles: 68874417 heartbeat IPC: 0.227968 cumulative IPC: 0.238708 (Simulation time: 0 hr 49 min 22 sec) 
Heartbeat CPU 0 instructions: 26000001 cycles: 73205093 heartbeat IPC: 0.230911 cumulative IPC: 0.238206 (Simulation time: 0 hr 51 min 28 sec) 
Heartbeat CPU 0 instructions: 27000000 cycles: 77557377 heartbeat IPC: 0.229764 cumulative IPC: 0.237692 (Simulation time: 0 hr 53 min 33 sec) 
Heartbeat CPU 0 instructions: 28000000 cycles: 81938017 heartbeat IPC: 0.228277 cumulative IPC: 0.237149 (Simulation time: 0 hr 55 min 51 sec) 
Heartbeat CPU 0 instructions: 29000001 cycles: 86294258 heartbeat IPC: 0.229556 cumulative IPC: 0.236736 (Simulation time: 0 hr 58 min 0 sec) 
Heartbeat CPU 0 instructions: 30000000 cycles: 90388216 heartbeat IPC: 0.244262 cumulative IPC: 0.237102 (Simulation time: 0 hr 59 min 59 sec) 
Heartbeat CPU 0 instructions: 31000000 cycles: 94511597 heartbeat IPC: 0.242519 cumulative IPC: 0.237354 (Simulation time: 1 hr 2 min 9 sec) 
Heartbeat CPU 0 instructions: 32000000 cycles: 98562762 heartbeat IPC: 0.246843 cumulative IPC: 0.23777 (Simulation time: 1 hr 4 min 13 sec) 
Heartbeat CPU 0 instructions: 33000003 cycles: 102533257 heartbeat IPC: 0.251859 cumulative IPC: 0.238349 (Simulation time: 1 hr 6 min 18 sec) 
Heartbeat CPU 0 instructions: 34000001 cycles: 107021899 heartbeat IPC: 0.222784 cumulative IPC: 0.237657 (Simulation time: 1 hr 8 min 31 sec) 
Heartbeat CPU 0 instructions: 35000002 cycles: 110902336 heartbeat IPC: 0.257703 cumulative IPC: 0.238399 (Simulation time: 1 hr 10 min 35 sec) 
Heartbeat CPU 0 instructions: 36000000 cycles: 115500755 heartbeat IPC: 0.217466 cumulative IPC: 0.23752 (Simulation time: 1 hr 12 min 51 sec) 
Heartbeat CPU 0 instructions: 37000000 cycles: 120069755 heartbeat IPC: 0.218866 cumulative IPC: 0.236772 (Simulation time: 1 hr 15 min 1 sec) 
Heartbeat CPU 0 instructions: 38000000 cycles: 124168040 heartbeat IPC: 0.244005 cumulative IPC: 0.237023 (Simulation time: 1 hr 17 min 5 sec) 
Heartbeat CPU 0 instructions: 39000001 cycles: 128589809 heartbeat IPC: 0.226154 cumulative IPC: 0.236631 (Simulation time: 1 hr 19 min 11 sec) 
Heartbeat CPU 0 instructions: 40000000 cycles: 132378374 heartbeat IPC: 0.263952 cumulative IPC: 0.23745 (Simulation time: 1 hr 21 min 19 sec) 
Heartbeat CPU 0 instructions: 41000000 cycles: 136435046 heartbeat IPC: 0.246507 cumulative IPC: 0.237732 (Simulation time: 1 hr 23 min 27 sec) 
Heartbeat CPU 0 instructions: 42000001 cycles: 140968072 heartbeat IPC: 0.220603 cumulative IPC: 0.237157 (Simulation time: 1 hr 25 min 38 sec) 
Heartbeat CPU 0 instructions: 43000001 cycles: 145306182 heartbeat IPC: 0.230515 cumulative IPC: 0.23695 (Simulation time: 1 hr 27 min 44 sec) 
Heartbeat CPU 0 instructions: 44000000 cycles: 149322976 heartbeat IPC: 0.248955 cumulative IPC: 0.237286 (Simulation time: 1 hr 29 min 50 sec) 
Heartbeat CPU 0 instructions: 45000003 cycles: 153405927 heartbeat IPC: 0.244922 cumulative IPC: 0.237498 (Simulation time: 1 hr 31 min 48 sec) 
Heartbeat CPU 0 instructions: 46000003 cycles: 157814583 heartbeat IPC: 0.226827 cumulative IPC: 0.237188 (Simulation time: 1 hr 33 min 58 sec) 
Heartbeat CPU 0 instructions: 47000000 cycles: 161235781 heartbeat IPC: 0.292294 cumulative IPC: 0.238403 (Simulation time: 1 hr 35 min 53 sec) 
Heartbeat CPU 0 instructions: 48000000 cycles: 165597478 heartbeat IPC: 0.229269 cumulative IPC: 0.238153 (Simulation time: 1 hr 37 min 59 sec) 
Heartbeat CPU 0 instructions: 49000000 cycles: 168794387 heartbeat IPC: 0.312802 cumulative IPC: 0.239619 (Simulation time: 1 hr 39 min 54 sec) 
Heartbeat CPU 0 instructions: 50000001 cycles: 173163260 heartbeat IPC: 0.228892 cumulative IPC: 0.239339 (Simulation time: 1 hr 42 min 0 sec) 
Heartbeat CPU 0 instructions: 51000003 cycles: 177218036 heartbeat IPC: 0.246623 cumulative IPC: 0.239511 (Simulation time: 1 hr 44 min 5 sec) 
Heartbeat CPU 0 instructions: 52000000 cycles: 181566830 heartbeat IPC: 0.229948 cumulative IPC: 0.239275 (Simulation time: 1 hr 46 min 21 sec) 
Heartbeat CPU 0 instructions: 53000000 cycles: 186478540 heartbeat IPC: 0.203595 cumulative IPC: 0.238303 (Simulation time: 1 hr 48 min 27 sec) 
Heartbeat CPU 0 instructions: 54000002 cycles: 190885244 heartbeat IPC: 0.226927 cumulative IPC: 0.238032 (Simulation time: 1 hr 50 min 35 sec) 
Heartbeat CPU 0 instructions: 55000001 cycles: 195089495 heartbeat IPC: 0.237854 cumulative IPC: 0.238028 (Simulation time: 1 hr 52 min 52 sec) 
Heartbeat CPU 0 instructions: 56000000 cycles: 199806415 heartbeat IPC: 0.212003 cumulative IPC: 0.237395 (Simulation time: 1 hr 55 min 13 sec) 
Heartbeat CPU 0 instructions: 57000001 cycles: 204171889 heartbeat IPC: 0.22907 cumulative IPC: 0.237211 (Simulation time: 1 hr 57 min 32 sec) 
Heartbeat CPU 0 instructions: 58000000 cycles: 207874568 heartbeat IPC: 0.270074 cumulative IPC: 0.237814 (Simulation time: 1 hr 59 min 41 sec) 
Heartbeat CPU 0 instructions: 59000003 cycles: 212110550 heartbeat IPC: 0.236073 cumulative IPC: 0.237778 (Simulation time: 2 hr 1 min 58 sec) 
Heartbeat CPU 0 instructions: 60000000 cycles: 216802765 heartbeat IPC: 0.213118 cumulative IPC: 0.237229 (Simulation time: 2 hr 4 min 11 sec) 
Heartbeat CPU 0 instructions: 61000001 cycles: 221392949 heartbeat IPC: 0.217856 cumulative IPC: 0.236816 (Simulation time: 2 hr 6 min 23 sec) 
Heartbeat CPU 0 instructions: 62000000 cycles: 225941955 heartbeat IPC: 0.219828 cumulative IPC: 0.236465 (Simulation time: 2 hr 8 min 32 sec) 
Heartbeat CPU 0 instructions: 63000001 cycles: 229910710 heartbeat IPC: 0.251968 cumulative IPC: 0.23674 (Simulation time: 2 hr 10 min 34 sec) 
Heartbeat CPU 0 instructions: 64000000 cycles: 233996892 heartbeat IPC: 0.244727 cumulative IPC: 0.236883 (Simulation time: 2 hr 12 min 39 sec) 
Heartbeat CPU 0 instructions: 65000001 cycles: 237789379 heartbeat IPC: 0.263679 cumulative IPC: 0.237321 (Simulation time: 2 hr 14 min 45 sec) 
Heartbeat CPU 0 instructions: 66000002 cycles: 242100358 heartbeat IPC: 0.231966 cumulative IPC: 0.237224 (Simulation time: 2 hr 16 min 47 sec) 
Heartbeat CPU 0 instructions: 67000002 cycles: 246260861 heartbeat IPC: 0.240356 cumulative IPC: 0.237278 (Simulation time: 2 hr 18 min 42 sec) 
Heartbeat CPU 0 instructions: 68000000 cycles: 250370386 heartbeat IPC: 0.243337 cumulative IPC: 0.23738 (Simulation time: 2 hr 20 min 49 sec) 
Heartbeat CPU 0 instructions: 69000000 cycles: 254742859 heartbeat IPC: 0.228704 cumulative IPC: 0.237227 (Simulation time: 2 hr 22 min 58 sec) 
Heartbeat CPU 0 instructions: 70000001 cycles: 258604044 heartbeat IPC: 0.258988 cumulative IPC: 0.23756 (Simulation time: 2 hr 25 min 1 sec) 
Heartbeat CPU 0 instructions: 71000003 cycles: 262785787 heartbeat IPC: 0.239135 cumulative IPC: 0.237586 (Simulation time: 2 hr 26 min 59 sec) 
Heartbeat CPU 0 instructions: 72000000 cycles: 267706294 heartbeat IPC: 0.20323 cumulative IPC: 0.23694 (Simulation time: 2 hr 29 min 1 sec) 
Heartbeat CPU 0 instructions: 73000002 cycles: 272002050 heartbeat IPC: 0.232788 cumulative IPC: 0.236873 (Simulation time: 2 hr 30 min 43 sec) 
Heartbeat CPU 0 instructions: 74000000 cycles: 276165504 heartbeat IPC: 0.240185 cumulative IPC: 0.236924 (Simulation time: 2 hr 32 min 32 sec) 
Heartbeat CPU 0 instructions: 75000003 cycles: 280582836 heartbeat IPC: 0.226382 cumulative IPC: 0.236754 (Simulation time: 2 hr 34 min 19 sec) 
Heartbeat CPU 0 instructions: 76000000 cycles: 284776076 heartbeat IPC: 0.238478 cumulative IPC: 0.23678 (Simulation time: 2 hr 35 min 57 sec) 
Heartbeat CPU 0 instructions: 77000002 cycles: 289782074 heartbeat IPC: 0.199761 cumulative IPC: 0.236127 (Simulation time: 2 hr 37 min 39 sec) 
Heartbeat CPU 0 instructions: 78000003 cycles: 293897193 heartbeat IPC: 0.243007 cumulative IPC: 0.236225 (Simulation time: 2 hr 39 min 12 sec) 
Heartbeat CPU 0 instructions: 79000002 cycles: 298092770 heartbeat IPC: 0.238346 cumulative IPC: 0.236256 (Simulation time: 2 hr 40 min 48 sec) 
Heartbeat CPU 0 instructions: 80000000 cycles: 302341816 heartbeat IPC: 0.235346 cumulative IPC: 0.236243 (Simulation time: 2 hr 42 min 6 sec) 
Heartbeat CPU 0 instructions: 81000002 cycles: 306797869 heartbeat IPC: 0.224414 cumulative IPC: 0.236067 (Simulation time: 2 hr 43 min 28 sec) 
Heartbeat CPU 0 instructions: 82000000 cycles: 311578879 heartbeat IPC: 0.20916 cumulative IPC: 0.235646 (Simulation time: 2 hr 44 min 47 sec) 
Heartbeat CPU 0 instructions: 83000002 cycles: 315622489 heartbeat IPC: 0.247304 cumulative IPC: 0.235799 (Simulation time: 2 hr 45 min 57 sec) 
Heartbeat CPU 0 instructions: 84000000 cycles: 319919193 heartbeat IPC: 0.232736 cumulative IPC: 0.235757 (Simulation time: 2 hr 47 min 11 sec) 
Heartbeat CPU 0 instructions: 85000000 cycles: 324087791 heartbeat IPC: 0.239889 cumulative IPC: 0.235811 (Simulation time: 2 hr 48 min 17 sec) 
Heartbeat CPU 0 instructions: 86000000 cycles: 328371032 heartbeat IPC: 0.233468 cumulative IPC: 0.23578 (Simulation time: 2 hr 49 min 25 sec) 
Heartbeat CPU 0 instructions: 87000001 cycles: 332416678 heartbeat IPC: 0.24718 cumulative IPC: 0.235921 (Simulation time: 2 hr 50 min 26 sec) 
Heartbeat CPU 0 instructions: 88000000 cycles: 336683740 heartbeat IPC: 0.234353 cumulative IPC: 0.235901 (Simulation time: 2 hr 51 min 28 sec) 
Heartbeat CPU 0 instructions: 89000003 cycles: 340447662 heartbeat IPC: 0.265681 cumulative IPC: 0.236236 (Simulation time: 2 hr 52 min 19 sec) 
Heartbeat CPU 0 instructions: 90000000 cycles: 344604008 heartbeat IPC: 0.240595 cumulative IPC: 0.236289 (Simulation time: 2 hr 53 min 10 sec) 
Heartbeat CPU 0 instructions: 91000001 cycles: 348518470 heartbeat IPC: 0.255463 cumulative IPC: 0.236509 (Simulation time: 2 hr 54 min 4 sec) 
Heartbeat CPU 0 instructions: 92000000 cycles: 352879987 heartbeat IPC: 0.229278 cumulative IPC: 0.236418 (Simulation time: 2 hr 54 min 54 sec) 
Heartbeat CPU 0 instructions: 93000001 cycles: 357701123 heartbeat IPC: 0.20742 cumulative IPC: 0.23602 (Simulation time: 2 hr 55 min 37 sec) 
Heartbeat CPU 0 instructions: 94000001 cycles: 361776677 heartbeat IPC: 0.245365 cumulative IPC: 0.236127 (Simulation time: 2 hr 56 min 17 sec) 
Heartbeat CPU 0 instructions: 95000000 cycles: 366060675 heartbeat IPC: 0.233427 cumulative IPC: 0.236095 (Simulation time: 2 hr 56 min 56 sec) 
Heartbeat CPU 0 instructions: 96000000 cycles: 370942585 heartbeat IPC: 0.204838 cumulative IPC: 0.235677 (Simulation time: 2 hr 57 min 31 sec) 
Heartbeat CPU 0 instructions: 97000000 cycles: 374999382 heartbeat IPC: 0.2465 cumulative IPC: 0.235796 (Simulation time: 2 hr 58 min 1 sec) 
Heartbeat CPU 0 instructions: 98000000 cycles: 379485940 heartbeat IPC: 0.222888 cumulative IPC: 0.235641 (Simulation time: 2 hr 58 min 33 sec) 
Heartbeat CPU 0 instructions: 99000000 cycles: 384242285 heartbeat IPC: 0.210245 cumulative IPC: 0.235321 (Simulation time: 2 hr 59 min 2 sec) 
Heartbeat CPU 0 instructions: 100000000 cycles: 388689797 heartbeat IPC: 0.224845 cumulative IPC: 0.2352 (Simulation time: 2 hr 59 min 27 sec) 
Heartbeat CPU 0 instructions: 101000000 cycles: 393012463 heartbeat IPC: 0.231339 cumulative IPC: 0.235157 (Simulation time: 2 hr 59 min 50 sec) 
Heartbeat CPU 0 instructions: 102000003 cycles: 397570808 heartbeat IPC: 0.219379 cumulative IPC: 0.234973 (Simulation time: 3 hr 0 min 13 sec) 
Heartbeat CPU 0 instructions: 103000000 cycles: 401718772 heartbeat IPC: 0.241081 cumulative IPC: 0.235037 (Simulation time: 3 hr 0 min 34 sec) 
Heartbeat CPU 0 instructions: 104000000 cycles: 405786570 heartbeat IPC: 0.245833 cumulative IPC: 0.235147 (Simulation time: 3 hr 0 min 54 sec) 
Heartbeat CPU 0 instructions: 105000003 cycles: 410146069 heartbeat IPC: 0.229385 cumulative IPC: 0.235085 (Simulation time: 3 hr 1 min 10 sec) 
Heartbeat CPU 0 instructions: 106000001 cycles: 413894265 heartbeat IPC: 0.266794 cumulative IPC: 0.235376 (Simulation time: 3 hr 1 min 24 sec) 
Heartbeat CPU 0 instructions: 107000000 cycles: 418297545 heartbeat IPC: 0.227103 cumulative IPC: 0.235288 (Simulation time: 3 hr 1 min 39 sec) 
Heartbeat CPU 0 instructions: 108000000 cycles: 422683583 heartbeat IPC: 0.227996 cumulative IPC: 0.235211 (Simulation time: 3 hr 1 min 53 sec) 
Heartbeat CPU 0 instructions: 109000000 cycles: 427512950 heartbeat IPC: 0.207066 cumulative IPC: 0.234888 (Simulation time: 3 hr 2 min 7 sec) 
Heartbeat CPU 0 instructions: 110000000 cycles: 431478452 heartbeat IPC: 0.252175 cumulative IPC: 0.23505 (Simulation time: 3 hr 2 min 19 sec) 
Finished CPU 0 instructions: 100000000 cycles: 425442222 cummulative IPC: 0.23505 (Simulation time: 3 hr 2 min 19 sec) 

ChampSim completed all CPUs

Region of Interest Statistics

CPU 0 cummulative IPC: 0.23505 instructions: 100000000 cycles: 425442222
LLC TOTAL     ACCESS:    3244341  HIT:    1127538  MISS:    2116803
LLC LOAD      ACCESS:    1932075  HIT:     497178  MISS:    1434897
LLC RFO       ACCESS:     329256  HIT:      93911  MISS:     235345
LLC PREFETCH  ACCESS:          0  HIT:          0  MISS:          0
LLC WRITEBACK ACCESS:     983010  HIT:     536449  MISS:     446561
