
*** ChampSim Multicore Out-of-Order Simulator ***

Warmup Instructions: 10000000
Simulation Instructions: 100000000
Configuration: 1
Number of CPUs: 1
LLC sets: 2048
LLC ways: 16
Off-chip DRAM Channels: 1 Width: 64-bit Data Rate: 1600 MT/s

CPU 0 runs /datasets/cs240c-wi22-a00-public/data/Assignment2-gz/cactusADM_734B.trace.gz
config 1, num_core 1, llc_sets 2048
Heartbeat CPU 0 instructions: 1000003 cycles: 592365 heartbeat IPC: 1.68815 cumulative IPC: 1.68815 (Simulation time: 0 hr 1 min 56 sec) 
Heartbeat CPU 0 instructions: 2000001 cycles: 1185295 heartbeat IPC: 1.68654 cumulative IPC: 1.68734 (Simulation time: 0 hr 4 min 5 sec) 
Heartbeat CPU 0 instructions: 3000003 cycles: 1778084 heartbeat IPC: 1.68694 cumulative IPC: 1.68721 (Simulation time: 0 hr 6 min 12 sec) 
Heartbeat CPU 0 instructions: 4000000 cycles: 2370621 heartbeat IPC: 1.68765 cumulative IPC: 1.68732 (Simulation time: 0 hr 8 min 5 sec) 
Heartbeat CPU 0 instructions: 5000000 cycles: 2963700 heartbeat IPC: 1.68612 cumulative IPC: 1.68708 (Simulation time: 0 hr 10 min 13 sec) 
Heartbeat CPU 0 instructions: 6000002 cycles: 3556615 heartbeat IPC: 1.68659 cumulative IPC: 1.687 (Simulation time: 0 hr 12 min 24 sec) 
Heartbeat CPU 0 instructions: 7000000 cycles: 4149221 heartbeat IPC: 1.68746 cumulative IPC: 1.68706 (Simulation time: 0 hr 14 min 36 sec) 
Heartbeat CPU 0 instructions: 8000000 cycles: 4741904 heartbeat IPC: 1.68724 cumulative IPC: 1.68709 (Simulation time: 0 hr 16 min 48 sec) 
Heartbeat CPU 0 instructions: 9000001 cycles: 5334751 heartbeat IPC: 1.68678 cumulative IPC: 1.68705 (Simulation time: 0 hr 19 min 0 sec) 
Heartbeat CPU 0 instructions: 10000003 cycles: 5955540 heartbeat IPC: 1.61086 cumulative IPC: 1.67911 (Simulation time: 0 hr 21 min 3 sec) 

Warmup complete CPU 0 instructions: 10000003 cycles: 5955540 (Simulation time: 0 hr 21 min 3 sec) 

Heartbeat CPU 0 instructions: 11000003 cycles: 13015171 heartbeat IPC: 0.14165 cumulative IPC: 0.14165 (Simulation time: 0 hr 23 min 30 sec) 
Heartbeat CPU 0 instructions: 12000000 cycles: 15136362 heartbeat IPC: 0.471432 cumulative IPC: 0.217845 (Simulation time: 0 hr 25 min 40 sec) 
Heartbeat CPU 0 instructions: 13000002 cycles: 17189903 heartbeat IPC: 0.486965 cumulative IPC: 0.267038 (Simulation time: 0 hr 27 min 45 sec) 
Heartbeat CPU 0 instructions: 14000000 cycles: 19241837 heartbeat IPC: 0.487344 cumulative IPC: 0.301062 (Simulation time: 0 hr 29 min 57 sec) 
Heartbeat CPU 0 instructions: 15000003 cycles: 21361529 heartbeat IPC: 0.471768 cumulative IPC: 0.324549 (Simulation time: 0 hr 32 min 5 sec) 
Heartbeat CPU 0 instructions: 16000000 cycles: 23478699 heartbeat IPC: 0.472327 cumulative IPC: 0.342404 (Simulation time: 0 hr 34 min 26 sec) 
Heartbeat CPU 0 instructions: 17000002 cycles: 25599995 heartbeat IPC: 0.471411 cumulative IPC: 0.356335 (Simulation time: 0 hr 36 min 48 sec) 
Heartbeat CPU 0 instructions: 18000001 cycles: 27626967 heartbeat IPC: 0.493346 cumulative IPC: 0.36915 (Simulation time: 0 hr 39 min 12 sec) 
Heartbeat CPU 0 instructions: 19000000 cycles: 29720266 heartbeat IPC: 0.477714 cumulative IPC: 0.378712 (Simulation time: 0 hr 41 min 31 sec) 
Heartbeat CPU 0 instructions: 20000000 cycles: 31834432 heartbeat IPC: 0.473 cumulative IPC: 0.386415 (Simulation time: 0 hr 43 min 55 sec) 
Heartbeat CPU 0 instructions: 21000002 cycles: 33954836 heartbeat IPC: 0.471609 cumulative IPC: 0.392867 (Simulation time: 0 hr 46 min 14 sec) 
Heartbeat CPU 0 instructions: 22000000 cycles: 36049078 heartbeat IPC: 0.477499 cumulative IPC: 0.398757 (Simulation time: 0 hr 48 min 19 sec) 
Heartbeat CPU 0 instructions: 23000001 cycles: 38087088 heartbeat IPC: 0.490675 cumulative IPC: 0.404587 (Simulation time: 0 hr 50 min 7 sec) 
Heartbeat CPU 0 instructions: 24000000 cycles: 46134233 heartbeat IPC: 0.124268 cumulative IPC: 0.348443 (Simulation time: 0 hr 52 min 21 sec) 
Heartbeat CPU 0 instructions: 25000000 cycles: 48256175 heartbeat IPC: 0.471266 cumulative IPC: 0.354605 (Simulation time: 0 hr 54 min 8 sec) 
Heartbeat CPU 0 instructions: 26000002 cycles: 50366596 heartbeat IPC: 0.47384 cumulative IPC: 0.360271 (Simulation time: 0 hr 55 min 54 sec) 
Heartbeat CPU 0 instructions: 27000002 cycles: 52401108 heartbeat IPC: 0.491518 cumulative IPC: 0.36602 (Simulation time: 0 hr 57 min 47 sec) 
Heartbeat CPU 0 instructions: 28000000 cycles: 54508089 heartbeat IPC: 0.474612 cumulative IPC: 0.370732 (Simulation time: 0 hr 59 min 32 sec) 
Heartbeat CPU 0 instructions: 29000001 cycles: 56653939 heartbeat IPC: 0.466016 cumulative IPC: 0.374765 (Simulation time: 1 hr 1 min 22 sec) 
Heartbeat CPU 0 instructions: 30000001 cycles: 58776599 heartbeat IPC: 0.471107 cumulative IPC: 0.378637 (Simulation time: 1 hr 3 min 13 sec) 
Heartbeat CPU 0 instructions: 31000003 cycles: 60861116 heartbeat IPC: 0.479728 cumulative IPC: 0.382475 (Simulation time: 1 hr 4 min 58 sec) 
Heartbeat CPU 0 instructions: 32000000 cycles: 62927068 heartbeat IPC: 0.484037 cumulative IPC: 0.386158 (Simulation time: 1 hr 6 min 49 sec) 
Heartbeat CPU 0 instructions: 33000000 cycles: 65043326 heartbeat IPC: 0.472532 cumulative IPC: 0.389251 (Simulation time: 1 hr 8 min 35 sec) 
Heartbeat CPU 0 instructions: 34000001 cycles: 67141141 heartbeat IPC: 0.476687 cumulative IPC: 0.392249 (Simulation time: 1 hr 10 min 24 sec) 
Heartbeat CPU 0 instructions: 35000000 cycles: 69243240 heartbeat IPC: 0.475715 cumulative IPC: 0.395021 (Simulation time: 1 hr 12 min 17 sec) 
Heartbeat CPU 0 instructions: 36000000 cycles: 71291875 heartbeat IPC: 0.48813 cumulative IPC: 0.397941 (Simulation time: 1 hr 14 min 6 sec) 
Heartbeat CPU 0 instructions: 37000003 cycles: 79357643 heartbeat IPC: 0.123981 cumulative IPC: 0.367837 (Simulation time: 1 hr 16 min 24 sec) 
Heartbeat CPU 0 instructions: 38000001 cycles: 81483005 heartbeat IPC: 0.470507 cumulative IPC: 0.370726 (Simulation time: 1 hr 18 min 16 sec) 
Heartbeat CPU 0 instructions: 39000001 cycles: 83591433 heartbeat IPC: 0.474287 cumulative IPC: 0.373539 (Simulation time: 1 hr 20 min 4 sec) 
Heartbeat CPU 0 instructions: 40000000 cycles: 85690795 heartbeat IPC: 0.476335 cumulative IPC: 0.376245 (Simulation time: 1 hr 21 min 56 sec) 
Heartbeat CPU 0 instructions: 41000001 cycles: 87711543 heartbeat IPC: 0.494867 cumulative IPC: 0.379177 (Simulation time: 1 hr 23 min 50 sec) 
Heartbeat CPU 0 instructions: 42000002 cycles: 89809224 heartbeat IPC: 0.476717 cumulative IPC: 0.381617 (Simulation time: 1 hr 25 min 47 sec) 
Heartbeat CPU 0 instructions: 43000000 cycles: 91930734 heartbeat IPC: 0.471361 cumulative IPC: 0.383832 (Simulation time: 1 hr 27 min 40 sec) 
Heartbeat CPU 0 instructions: 44000000 cycles: 94044040 heartbeat IPC: 0.473192 cumulative IPC: 0.385975 (Simulation time: 1 hr 29 min 30 sec) 
Heartbeat CPU 0 instructions: 45000000 cycles: 96107274 heartbeat IPC: 0.484676 cumulative IPC: 0.388234 (Simulation time: 1 hr 31 min 21 sec) 
Heartbeat CPU 0 instructions: 46000003 cycles: 98160936 heartbeat IPC: 0.486937 cumulative IPC: 0.390433 (Simulation time: 1 hr 33 min 11 sec) 
Heartbeat CPU 0 instructions: 47000001 cycles: 100253815 heartbeat IPC: 0.47781 cumulative IPC: 0.392372 (Simulation time: 1 hr 35 min 2 sec) 
Heartbeat CPU 0 instructions: 48000000 cycles: 102360554 heartbeat IPC: 0.474667 cumulative IPC: 0.39417 (Simulation time: 1 hr 36 min 57 sec) 
Heartbeat CPU 0 instructions: 49000001 cycles: 104461454 heartbeat IPC: 0.475987 cumulative IPC: 0.395915 (Simulation time: 1 hr 38 min 52 sec) 
Heartbeat CPU 0 instructions: 50000003 cycles: 112411726 heartbeat IPC: 0.125782 cumulative IPC: 0.375741 (Simulation time: 1 hr 41 min 21 sec) 
Heartbeat CPU 0 instructions: 51000002 cycles: 114528069 heartbeat IPC: 0.472513 cumulative IPC: 0.377628 (Simulation time: 1 hr 43 min 21 sec) 
Heartbeat CPU 0 instructions: 52000000 cycles: 116636304 heartbeat IPC: 0.474329 cumulative IPC: 0.37947 (Simulation time: 1 hr 45 min 13 sec) 
Heartbeat CPU 0 instructions: 53000003 cycles: 118748073 heartbeat IPC: 0.473538 cumulative IPC: 0.381231 (Simulation time: 1 hr 47 min 13 sec) 
Heartbeat CPU 0 instructions: 54000000 cycles: 120814319 heartbeat IPC: 0.483968 cumulative IPC: 0.383079 (Simulation time: 1 hr 49 min 6 sec) 
Heartbeat CPU 0 instructions: 55000001 cycles: 122861131 heartbeat IPC: 0.488565 cumulative IPC: 0.384926 (Simulation time: 1 hr 51 min 5 sec) 
Heartbeat CPU 0 instructions: 56000000 cycles: 125010533 heartbeat IPC: 0.465245 cumulative IPC: 0.386376 (Simulation time: 1 hr 53 min 7 sec) 
Heartbeat CPU 0 instructions: 57000000 cycles: 127128802 heartbeat IPC: 0.472084 cumulative IPC: 0.387874 (Simulation time: 1 hr 55 min 12 sec) 
Heartbeat CPU 0 instructions: 58000001 cycles: 129245034 heartbeat IPC: 0.472538 cumulative IPC: 0.389328 (Simulation time: 1 hr 57 min 24 sec) 
Heartbeat CPU 0 instructions: 59000000 cycles: 131282179 heartbeat IPC: 0.490883 cumulative IPC: 0.390978 (Simulation time: 1 hr 59 min 28 sec) 
Heartbeat CPU 0 instructions: 60000000 cycles: 133355397 heartbeat IPC: 0.482342 cumulative IPC: 0.392465 (Simulation time: 2 hr 1 min 37 sec) 
Heartbeat CPU 0 instructions: 61000002 cycles: 135478392 heartbeat IPC: 0.471034 cumulative IPC: 0.393753 (Simulation time: 2 hr 3 min 35 sec) 
Heartbeat CPU 0 instructions: 62000000 cycles: 137596808 heartbeat IPC: 0.47205 cumulative IPC: 0.395013 (Simulation time: 2 hr 5 min 36 sec) 
Heartbeat CPU 0 instructions: 63000002 cycles: 145446899 heartbeat IPC: 0.127387 cumulative IPC: 0.379952 (Simulation time: 2 hr 8 min 9 sec) 
Heartbeat CPU 0 instructions: 64000000 cycles: 147804168 heartbeat IPC: 0.424219 cumulative IPC: 0.380687 (Simulation time: 2 hr 10 min 8 sec) 
Heartbeat CPU 0 instructions: 65000003 cycles: 149910039 heartbeat IPC: 0.474864 cumulative IPC: 0.382065 (Simulation time: 2 hr 12 min 12 sec) 
Heartbeat CPU 0 instructions: 66000000 cycles: 152030189 heartbeat IPC: 0.471663 cumulative IPC: 0.383366 (Simulation time: 2 hr 14 min 6 sec) 
Heartbeat CPU 0 instructions: 67000000 cycles: 154149318 heartbeat IPC: 0.471892 cumulative IPC: 0.384632 (Simulation time: 2 hr 15 min 57 sec) 
Heartbeat CPU 0 instructions: 68000000 cycles: 156192414 heartbeat IPC: 0.489453 cumulative IPC: 0.386057 (Simulation time: 2 hr 17 min 42 sec) 
Heartbeat CPU 0 instructions: 69000000 cycles: 158288920 heartbeat IPC: 0.476984 cumulative IPC: 0.387308 (Simulation time: 2 hr 19 min 29 sec) 
Heartbeat CPU 0 instructions: 70000001 cycles: 160406817 heartbeat IPC: 0.472167 cumulative IPC: 0.388472 (Simulation time: 2 hr 21 min 22 sec) 
Heartbeat CPU 0 instructions: 71000001 cycles: 162548632 heartbeat IPC: 0.466894 cumulative IPC: 0.389545 (Simulation time: 2 hr 23 min 20 sec) 
Heartbeat CPU 0 instructions: 72000000 cycles: 164653534 heartbeat IPC: 0.475081 cumulative IPC: 0.390679 (Simulation time: 2 hr 25 min 24 sec) 
Heartbeat CPU 0 instructions: 73000003 cycles: 166673632 heartbeat IPC: 0.495027 cumulative IPC: 0.391991 (Simulation time: 2 hr 27 min 13 sec) 
Heartbeat CPU 0 instructions: 74000003 cycles: 168769916 heartbeat IPC: 0.477035 cumulative IPC: 0.393086 (Simulation time: 2 hr 28 min 51 sec) 
Heartbeat CPU 0 instructions: 75000002 cycles: 170865907 heartbeat IPC: 0.477101 cumulative IPC: 0.394154 (Simulation time: 2 hr 30 min 22 sec) 
Heartbeat CPU 0 instructions: 76000000 cycles: 177490153 heartbeat IPC: 0.15096 cumulative IPC: 0.384762 (Simulation time: 2 hr 32 min 9 sec) 
Heartbeat CPU 0 instructions: 77000000 cycles: 181097156 heartbeat IPC: 0.277238 cumulative IPC: 0.382548 (Simulation time: 2 hr 33 min 42 sec) 
Heartbeat CPU 0 instructions: 78000002 cycles: 183160254 heartbeat IPC: 0.484709 cumulative IPC: 0.383737 (Simulation time: 2 hr 35 min 3 sec) 
Heartbeat CPU 0 instructions: 79000000 cycles: 185288263 heartbeat IPC: 0.469922 cumulative IPC: 0.38476 (Simulation time: 2 hr 36 min 18 sec) 
Heartbeat CPU 0 instructions: 80000000 cycles: 187387592 heartbeat IPC: 0.476343 cumulative IPC: 0.385819 (Simulation time: 2 hr 37 min 33 sec) 
Heartbeat CPU 0 instructions: 81000000 cycles: 189490708 heartbeat IPC: 0.475485 cumulative IPC: 0.386847 (Simulation time: 2 hr 38 min 42 sec) 
Heartbeat CPU 0 instructions: 82000003 cycles: 191517355 heartbeat IPC: 0.493427 cumulative IPC: 0.388011 (Simulation time: 2 hr 39 min 52 sec) 
Heartbeat CPU 0 instructions: 83000003 cycles: 193622955 heartbeat IPC: 0.474924 cumulative IPC: 0.388986 (Simulation time: 2 hr 41 min 1 sec) 
Heartbeat CPU 0 instructions: 84000000 cycles: 195746290 heartbeat IPC: 0.470956 cumulative IPC: 0.389903 (Simulation time: 2 hr 42 min 9 sec) 
Heartbeat CPU 0 instructions: 85000003 cycles: 197865502 heartbeat IPC: 0.471875 cumulative IPC: 0.390808 (Simulation time: 2 hr 43 min 15 sec) 
Heartbeat CPU 0 instructions: 86000000 cycles: 199920572 heartbeat IPC: 0.4866 cumulative IPC: 0.391823 (Simulation time: 2 hr 44 min 18 sec) 
Heartbeat CPU 0 instructions: 87000000 cycles: 201949864 heartbeat IPC: 0.492783 cumulative IPC: 0.392869 (Simulation time: 2 hr 45 min 25 sec) 
Heartbeat CPU 0 instructions: 88000000 cycles: 204072468 heartbeat IPC: 0.471119 cumulative IPC: 0.393707 (Simulation time: 2 hr 46 min 36 sec) 
Heartbeat CPU 0 instructions: 89000002 cycles: 209635839 heartbeat IPC: 0.179747 cumulative IPC: 0.387863 (Simulation time: 2 hr 47 min 54 sec) 
Heartbeat CPU 0 instructions: 90000002 cycles: 214336115 heartbeat IPC: 0.212753 cumulative IPC: 0.383913 (Simulation time: 2 hr 48 min 53 sec) 
Heartbeat CPU 0 instructions: 91000003 cycles: 216356329 heartbeat IPC: 0.494998 cumulative IPC: 0.38498 (Simulation time: 2 hr 49 min 48 sec) 
Heartbeat CPU 0 instructions: 92000000 cycles: 218469629 heartbeat IPC: 0.473192 cumulative IPC: 0.385857 (Simulation time: 2 hr 50 min 40 sec) 
Heartbeat CPU 0 instructions: 93000000 cycles: 220575323 heartbeat IPC: 0.474903 cumulative IPC: 0.38673 (Simulation time: 2 hr 51 min 37 sec) 
Heartbeat CPU 0 instructions: 94000003 cycles: 222687987 heartbeat IPC: 0.473337 cumulative IPC: 0.387575 (Simulation time: 2 hr 52 min 28 sec) 
Heartbeat CPU 0 instructions: 95000000 cycles: 224764926 heartbeat IPC: 0.481476 cumulative IPC: 0.388466 (Simulation time: 2 hr 53 min 12 sec) 
Heartbeat CPU 0 instructions: 96000000 cycles: 226824816 heartbeat IPC: 0.485463 cumulative IPC: 0.389371 (Simulation time: 2 hr 53 min 56 sec) 
Heartbeat CPU 0 instructions: 97000001 cycles: 228936700 heartbeat IPC: 0.473511 cumulative IPC: 0.390167 (Simulation time: 2 hr 54 min 35 sec) 
Heartbeat CPU 0 instructions: 98000000 cycles: 231055774 heartbeat IPC: 0.471904 cumulative IPC: 0.390937 (Simulation time: 2 hr 55 min 8 sec) 
Heartbeat CPU 0 instructions: 99000001 cycles: 233155695 heartbeat IPC: 0.476209 cumulative IPC: 0.391725 (Simulation time: 2 hr 55 min 41 sec) 
Heartbeat CPU 0 instructions: 100000000 cycles: 235206928 heartbeat IPC: 0.487511 cumulative IPC: 0.392582 (Simulation time: 2 hr 56 min 12 sec) 
Heartbeat CPU 0 instructions: 101000000 cycles: 237287359 heartbeat IPC: 0.48067 cumulative IPC: 0.393374 (Simulation time: 2 hr 56 min 43 sec) 
Heartbeat CPU 0 instructions: 102000000 cycles: 241736873 heartbeat IPC: 0.224744 cumulative IPC: 0.390192 (Simulation time: 2 hr 57 min 11 sec) 
Heartbeat CPU 0 instructions: 103000000 cycles: 247547731 heartbeat IPC: 0.172092 cumulative IPC: 0.384946 (Simulation time: 2 hr 57 min 37 sec) 
Heartbeat CPU 0 instructions: 104000000 cycles: 249633431 heartbeat IPC: 0.479455 cumulative IPC: 0.385755 (Simulation time: 2 hr 57 min 59 sec) 
Heartbeat CPU 0 instructions: 105000000 cycles: 251684016 heartbeat IPC: 0.487666 cumulative IPC: 0.386606 (Simulation time: 2 hr 58 min 22 sec) 
Heartbeat CPU 0 instructions: 106000002 cycles: 253791042 heartbeat IPC: 0.474604 cumulative IPC: 0.387354 (Simulation time: 2 hr 58 min 45 sec) 
Heartbeat CPU 0 instructions: 107000001 cycles: 255910933 heartbeat IPC: 0.471722 cumulative IPC: 0.388069 (Simulation time: 2 hr 59 min 5 sec) 
Heartbeat CPU 0 instructions: 108000000 cycles: 258047289 heartbeat IPC: 0.468086 cumulative IPC: 0.388747 (Simulation time: 2 hr 59 min 27 sec) 
Heartbeat CPU 0 instructions: 109000001 cycles: 260098005 heartbeat IPC: 0.487635 cumulative IPC: 0.389545 (Simulation time: 2 hr 59 min 49 sec) 
Heartbeat CPU 0 instructions: 110000003 cycles: 262175980 heartbeat IPC: 0.481239 cumulative IPC: 0.390289 (Simulation time: 3 hr 0 min 11 sec) 
Finished CPU 0 instructions: 100000000 cycles: 256220440 cummulative IPC: 0.390289 (Simulation time: 3 hr 0 min 11 sec) 

ChampSim completed all CPUs

Region of Interest Statistics

CPU 0 cummulative IPC: 0.390289 instructions: 100000000 cycles: 256220440
LLC TOTAL     ACCESS:    1162160  HIT:       1358  MISS:    1160802
LLC LOAD      ACCESS:     632030  HIT:        394  MISS:     631636
LLC RFO       ACCESS:     264148  HIT:        289  MISS:     263859
LLC PREFETCH  ACCESS:          0  HIT:          0  MISS:          0
LLC WRITEBACK ACCESS:     265982  HIT:        675  MISS:     265307
