
*** ChampSim Multicore Out-of-Order Simulator ***

Warmup Instructions: 10000000
Simulation Instructions: 100000000
Configuration: 1
Number of CPUs: 1
LLC sets: 2048
LLC ways: 16
Off-chip DRAM Channels: 1 Width: 64-bit Data Rate: 1600 MT/s

CPU 0 runs /datasets/cs240c-wi22-a00-public/data/Assignment2-gz/cactusADM_1039B.trace.gz
config 1, num_core 1, llc_sets 2048
Heartbeat CPU 0 instructions: 1000000 cycles: 595112 heartbeat IPC: 1.68036 cumulative IPC: 1.68036 (Simulation time: 0 hr 1 min 44 sec) 
Heartbeat CPU 0 instructions: 2000002 cycles: 1190036 heartbeat IPC: 1.68089 cumulative IPC: 1.68062 (Simulation time: 0 hr 3 min 33 sec) 
Heartbeat CPU 0 instructions: 3000003 cycles: 1785063 heartbeat IPC: 1.6806 cumulative IPC: 1.68061 (Simulation time: 0 hr 5 min 20 sec) 
Heartbeat CPU 0 instructions: 4000000 cycles: 2380237 heartbeat IPC: 1.68018 cumulative IPC: 1.6805 (Simulation time: 0 hr 7 min 13 sec) 
Heartbeat CPU 0 instructions: 5000001 cycles: 2975013 heartbeat IPC: 1.68131 cumulative IPC: 1.68067 (Simulation time: 0 hr 9 min 5 sec) 
Heartbeat CPU 0 instructions: 6000002 cycles: 3569900 heartbeat IPC: 1.68099 cumulative IPC: 1.68072 (Simulation time: 0 hr 10 min 59 sec) 
Heartbeat CPU 0 instructions: 7000000 cycles: 4164813 heartbeat IPC: 1.68091 cumulative IPC: 1.68075 (Simulation time: 0 hr 12 min 41 sec) 
Heartbeat CPU 0 instructions: 8000000 cycles: 4759644 heartbeat IPC: 1.68115 cumulative IPC: 1.6808 (Simulation time: 0 hr 14 min 26 sec) 
Heartbeat CPU 0 instructions: 9000002 cycles: 5354857 heartbeat IPC: 1.68007 cumulative IPC: 1.68072 (Simulation time: 0 hr 16 min 13 sec) 
Heartbeat CPU 0 instructions: 10000003 cycles: 5968754 heartbeat IPC: 1.62894 cumulative IPC: 1.67539 (Simulation time: 0 hr 17 min 54 sec) 

Warmup complete CPU 0 instructions: 10000003 cycles: 5968754 (Simulation time: 0 hr 17 min 54 sec) 

Heartbeat CPU 0 instructions: 11000003 cycles: 12597027 heartbeat IPC: 0.150869 cumulative IPC: 0.150869 (Simulation time: 0 hr 20 min 19 sec) 
Heartbeat CPU 0 instructions: 12000000 cycles: 14728097 heartbeat IPC: 0.469246 cumulative IPC: 0.228327 (Simulation time: 0 hr 22 min 37 sec) 
Heartbeat CPU 0 instructions: 13000002 cycles: 16781736 heartbeat IPC: 0.486941 cumulative IPC: 0.277444 (Simulation time: 0 hr 24 min 41 sec) 
Heartbeat CPU 0 instructions: 14000001 cycles: 18847082 heartbeat IPC: 0.48418 cumulative IPC: 0.310599 (Simulation time: 0 hr 26 min 47 sec) 
Heartbeat CPU 0 instructions: 15000002 cycles: 20981976 heartbeat IPC: 0.468408 cumulative IPC: 0.33304 (Simulation time: 0 hr 28 min 53 sec) 
Heartbeat CPU 0 instructions: 16000000 cycles: 23102629 heartbeat IPC: 0.471552 cumulative IPC: 0.350183 (Simulation time: 0 hr 30 min 56 sec) 
Heartbeat CPU 0 instructions: 17000003 cycles: 25189198 heartbeat IPC: 0.479257 cumulative IPC: 0.364196 (Simulation time: 0 hr 32 min 55 sec) 
Heartbeat CPU 0 instructions: 18000002 cycles: 27242361 heartbeat IPC: 0.487053 cumulative IPC: 0.376053 (Simulation time: 0 hr 34 min 54 sec) 
Heartbeat CPU 0 instructions: 19000003 cycles: 29356554 heartbeat IPC: 0.472994 cumulative IPC: 0.384816 (Simulation time: 0 hr 36 min 46 sec) 
Heartbeat CPU 0 instructions: 20000000 cycles: 31497498 heartbeat IPC: 0.467082 cumulative IPC: 0.391715 (Simulation time: 0 hr 38 min 41 sec) 
Heartbeat CPU 0 instructions: 21000002 cycles: 33633324 heartbeat IPC: 0.468204 cumulative IPC: 0.39762 (Simulation time: 0 hr 40 min 44 sec) 
Heartbeat CPU 0 instructions: 22000003 cycles: 35702686 heartbeat IPC: 0.483241 cumulative IPC: 0.403579 (Simulation time: 0 hr 42 min 36 sec) 
Heartbeat CPU 0 instructions: 23000001 cycles: 37759759 heartbeat IPC: 0.486127 cumulative IPC: 0.408921 (Simulation time: 0 hr 44 min 30 sec) 
Heartbeat CPU 0 instructions: 24000000 cycles: 44965762 heartbeat IPC: 0.138773 cumulative IPC: 0.359002 (Simulation time: 0 hr 46 min 59 sec) 
Heartbeat CPU 0 instructions: 25000002 cycles: 47100478 heartbeat IPC: 0.468447 cumulative IPC: 0.364682 (Simulation time: 0 hr 48 min 49 sec) 
Heartbeat CPU 0 instructions: 26000002 cycles: 49202649 heartbeat IPC: 0.475699 cumulative IPC: 0.37008 (Simulation time: 0 hr 51 min 18 sec) 
Heartbeat CPU 0 instructions: 27000001 cycles: 51248785 heartbeat IPC: 0.488726 cumulative IPC: 0.375441 (Simulation time: 0 hr 53 min 48 sec) 
Heartbeat CPU 0 instructions: 28000000 cycles: 53350808 heartbeat IPC: 0.475732 cumulative IPC: 0.379891 (Simulation time: 0 hr 56 min 10 sec) 
Heartbeat CPU 0 instructions: 29000000 cycles: 55485774 heartbeat IPC: 0.468392 cumulative IPC: 0.383706 (Simulation time: 0 hr 58 min 35 sec) 
Heartbeat CPU 0 instructions: 30000003 cycles: 57608006 heartbeat IPC: 0.471203 cumulative IPC: 0.387302 (Simulation time: 1 hr 1 min 1 sec) 
Heartbeat CPU 0 instructions: 31000001 cycles: 59671013 heartbeat IPC: 0.484728 cumulative IPC: 0.391045 (Simulation time: 1 hr 3 min 34 sec) 
Heartbeat CPU 0 instructions: 32000000 cycles: 61720258 heartbeat IPC: 0.487984 cumulative IPC: 0.394608 (Simulation time: 1 hr 6 min 2 sec) 
Heartbeat CPU 0 instructions: 33000001 cycles: 63856808 heartbeat IPC: 0.468045 cumulative IPC: 0.397319 (Simulation time: 1 hr 8 min 43 sec) 
Heartbeat CPU 0 instructions: 34000000 cycles: 65972828 heartbeat IPC: 0.472585 cumulative IPC: 0.399973 (Simulation time: 1 hr 11 min 0 sec) 
Heartbeat CPU 0 instructions: 35000001 cycles: 68076791 heartbeat IPC: 0.475294 cumulative IPC: 0.402524 (Simulation time: 1 hr 13 min 26 sec) 
Heartbeat CPU 0 instructions: 36000000 cycles: 70121655 heartbeat IPC: 0.48903 cumulative IPC: 0.405282 (Simulation time: 1 hr 16 min 0 sec) 
Heartbeat CPU 0 instructions: 37000002 cycles: 77267625 heartbeat IPC: 0.139939 cumulative IPC: 0.378688 (Simulation time: 1 hr 19 min 14 sec) 
Heartbeat CPU 0 instructions: 38000001 cycles: 79404349 heartbeat IPC: 0.468006 cumulative IPC: 0.381286 (Simulation time: 1 hr 21 min 41 sec) 
Heartbeat CPU 0 instructions: 39000002 cycles: 81525029 heartbeat IPC: 0.471547 cumulative IPC: 0.38382 (Simulation time: 1 hr 24 min 3 sec) 
Heartbeat CPU 0 instructions: 40000000 cycles: 83591093 heartbeat IPC: 0.484011 cumulative IPC: 0.386487 (Simulation time: 1 hr 26 min 30 sec) 
Heartbeat CPU 0 instructions: 41000003 cycles: 85652949 heartbeat IPC: 0.485001 cumulative IPC: 0.389036 (Simulation time: 1 hr 28 min 59 sec) 
Heartbeat CPU 0 instructions: 42000000 cycles: 87781403 heartbeat IPC: 0.469823 cumulative IPC: 0.391138 (Simulation time: 1 hr 31 min 9 sec) 
Heartbeat CPU 0 instructions: 43000000 cycles: 89911407 heartbeat IPC: 0.469483 cumulative IPC: 0.393126 (Simulation time: 1 hr 33 min 9 sec) 
Heartbeat CPU 0 instructions: 44000000 cycles: 92015632 heartbeat IPC: 0.475234 cumulative IPC: 0.395133 (Simulation time: 1 hr 35 min 7 sec) 
Heartbeat CPU 0 instructions: 45000000 cycles: 94053889 heartbeat IPC: 0.490615 cumulative IPC: 0.397343 (Simulation time: 1 hr 37 min 1 sec) 
Heartbeat CPU 0 instructions: 46000003 cycles: 96148900 heartbeat IPC: 0.477326 cumulative IPC: 0.399201 (Simulation time: 1 hr 38 min 58 sec) 
Heartbeat CPU 0 instructions: 47000001 cycles: 98275466 heartbeat IPC: 0.470241 cumulative IPC: 0.400838 (Simulation time: 1 hr 40 min 57 sec) 
Heartbeat CPU 0 instructions: 48000000 cycles: 100397608 heartbeat IPC: 0.471222 cumulative IPC: 0.402419 (Simulation time: 1 hr 42 min 57 sec) 
Heartbeat CPU 0 instructions: 49000001 cycles: 102509782 heartbeat IPC: 0.473446 cumulative IPC: 0.403973 (Simulation time: 1 hr 44 min 48 sec) 
Heartbeat CPU 0 instructions: 50000002 cycles: 109724238 heartbeat IPC: 0.138611 cumulative IPC: 0.385522 (Simulation time: 1 hr 47 min 11 sec) 
Heartbeat CPU 0 instructions: 51000003 cycles: 111892420 heartbeat IPC: 0.461216 cumulative IPC: 0.387071 (Simulation time: 1 hr 49 min 8 sec) 
Heartbeat CPU 0 instructions: 52000000 cycles: 114054973 heartbeat IPC: 0.462415 cumulative IPC: 0.388579 (Simulation time: 1 hr 51 min 12 sec) 
Heartbeat CPU 0 instructions: 53000003 cycles: 116189896 heartbeat IPC: 0.468402 cumulative IPC: 0.390125 (Simulation time: 1 hr 53 min 12 sec) 
Heartbeat CPU 0 instructions: 54000002 cycles: 118300721 heartbeat IPC: 0.473748 cumulative IPC: 0.391696 (Simulation time: 1 hr 55 min 15 sec) 
Heartbeat CPU 0 instructions: 55000001 cycles: 120405163 heartbeat IPC: 0.475185 cumulative IPC: 0.393231 (Simulation time: 1 hr 57 min 17 sec) 
Heartbeat CPU 0 instructions: 56000000 cycles: 122541705 heartbeat IPC: 0.468046 cumulative IPC: 0.394603 (Simulation time: 1 hr 59 min 28 sec) 
Heartbeat CPU 0 instructions: 57000000 cycles: 124689234 heartbeat IPC: 0.465651 cumulative IPC: 0.395888 (Simulation time: 2 hr 1 min 27 sec) 
Heartbeat CPU 0 instructions: 58000000 cycles: 126844434 heartbeat IPC: 0.463994 cumulative IPC: 0.397102 (Simulation time: 2 hr 3 min 26 sec) 
Heartbeat CPU 0 instructions: 59000002 cycles: 128936850 heartbeat IPC: 0.477917 cumulative IPC: 0.398477 (Simulation time: 2 hr 5 min 33 sec) 
Heartbeat CPU 0 instructions: 60000000 cycles: 131071801 heartbeat IPC: 0.468394 cumulative IPC: 0.399671 (Simulation time: 2 hr 7 min 37 sec) 
Heartbeat CPU 0 instructions: 61000001 cycles: 133246377 heartbeat IPC: 0.45986 cumulative IPC: 0.400699 (Simulation time: 2 hr 9 min 41 sec) 
Heartbeat CPU 0 instructions: 62000000 cycles: 135401657 heartbeat IPC: 0.463976 cumulative IPC: 0.401753 (Simulation time: 2 hr 11 min 50 sec) 
Heartbeat CPU 0 instructions: 63000001 cycles: 142132467 heartbeat IPC: 0.148571 cumulative IPC: 0.389237 (Simulation time: 2 hr 14 min 43 sec) 
Heartbeat CPU 0 instructions: 64000000 cycles: 144822477 heartbeat IPC: 0.371745 cumulative IPC: 0.388898 (Simulation time: 2 hr 16 min 58 sec) 
Heartbeat CPU 0 instructions: 65000002 cycles: 146976252 heartbeat IPC: 0.464302 cumulative IPC: 0.39005 (Simulation time: 2 hr 19 min 4 sec) 
Heartbeat CPU 0 instructions: 66000000 cycles: 149129166 heartbeat IPC: 0.464486 cumulative IPC: 0.39117 (Simulation time: 2 hr 21 min 1 sec) 
Heartbeat CPU 0 instructions: 67000003 cycles: 151271412 heartbeat IPC: 0.466801 cumulative IPC: 0.392285 (Simulation time: 2 hr 23 min 4 sec) 
Heartbeat CPU 0 instructions: 68000000 cycles: 153381989 heartbeat IPC: 0.473803 cumulative IPC: 0.393452 (Simulation time: 2 hr 25 min 2 sec) 
Heartbeat CPU 0 instructions: 69000003 cycles: 155536484 heartbeat IPC: 0.464147 cumulative IPC: 0.39447 (Simulation time: 2 hr 26 min 54 sec) 
Heartbeat CPU 0 instructions: 70000002 cycles: 157680671 heartbeat IPC: 0.466377 cumulative IPC: 0.395486 (Simulation time: 2 hr 29 min 3 sec) 
Heartbeat CPU 0 instructions: 71000000 cycles: 159821680 heartbeat IPC: 0.467069 cumulative IPC: 0.396483 (Simulation time: 2 hr 31 min 11 sec) 
Heartbeat CPU 0 instructions: 72000000 cycles: 161956765 heartbeat IPC: 0.468365 cumulative IPC: 0.397466 (Simulation time: 2 hr 33 min 8 sec) 
Heartbeat CPU 0 instructions: 73000001 cycles: 164042144 heartbeat IPC: 0.47953 cumulative IPC: 0.398549 (Simulation time: 2 hr 35 min 1 sec) 
Heartbeat CPU 0 instructions: 74000003 cycles: 166188901 heartbeat IPC: 0.46582 cumulative IPC: 0.39945 (Simulation time: 2 hr 36 min 28 sec) 
Heartbeat CPU 0 instructions: 75000002 cycles: 168340436 heartbeat IPC: 0.464784 cumulative IPC: 0.400316 (Simulation time: 2 hr 37 min 53 sec) 
Heartbeat CPU 0 instructions: 76000000 cycles: 174105750 heartbeat IPC: 0.173451 cumulative IPC: 0.392537 (Simulation time: 2 hr 39 min 28 sec) 
Heartbeat CPU 0 instructions: 77000001 cycles: 177723594 heartbeat IPC: 0.276408 cumulative IPC: 0.390091 (Simulation time: 2 hr 40 min 53 sec) 
Heartbeat CPU 0 instructions: 78000000 cycles: 179864454 heartbeat IPC: 0.467102 cumulative IPC: 0.391039 (Simulation time: 2 hr 42 min 13 sec) 
Heartbeat CPU 0 instructions: 79000002 cycles: 182008253 heartbeat IPC: 0.466463 cumulative IPC: 0.391957 (Simulation time: 2 hr 43 min 27 sec) 
Heartbeat CPU 0 instructions: 80000000 cycles: 184160636 heartbeat IPC: 0.4646 cumulative IPC: 0.392835 (Simulation time: 2 hr 44 min 42 sec) 
Heartbeat CPU 0 instructions: 81000002 cycles: 186301086 heartbeat IPC: 0.467192 cumulative IPC: 0.393718 (Simulation time: 2 hr 45 min 55 sec) 
Heartbeat CPU 0 instructions: 82000002 cycles: 188382218 heartbeat IPC: 0.480508 cumulative IPC: 0.394708 (Simulation time: 2 hr 47 min 3 sec) 
Heartbeat CPU 0 instructions: 83000003 cycles: 190521128 heartbeat IPC: 0.467528 cumulative IPC: 0.395552 (Simulation time: 2 hr 48 min 10 sec) 
Heartbeat CPU 0 instructions: 84000000 cycles: 192665534 heartbeat IPC: 0.466328 cumulative IPC: 0.396365 (Simulation time: 2 hr 49 min 16 sec) 
Heartbeat CPU 0 instructions: 85000002 cycles: 194825420 heartbeat IPC: 0.462988 cumulative IPC: 0.397127 (Simulation time: 2 hr 50 min 22 sec) 
Heartbeat CPU 0 instructions: 86000003 cycles: 196928138 heartbeat IPC: 0.475575 cumulative IPC: 0.39799 (Simulation time: 2 hr 51 min 20 sec) 
Heartbeat CPU 0 instructions: 87000000 cycles: 199057250 heartbeat IPC: 0.469678 cumulative IPC: 0.398781 (Simulation time: 2 hr 52 min 11 sec) 
Heartbeat CPU 0 instructions: 88000000 cycles: 201219655 heartbeat IPC: 0.462448 cumulative IPC: 0.399486 (Simulation time: 2 hr 53 min 6 sec) 
Heartbeat CPU 0 instructions: 89000001 cycles: 206023720 heartbeat IPC: 0.208157 cumulative IPC: 0.394891 (Simulation time: 2 hr 53 min 54 sec) 
Heartbeat CPU 0 instructions: 90000002 cycles: 210645891 heartbeat IPC: 0.216349 cumulative IPC: 0.390859 (Simulation time: 2 hr 54 min 46 sec) 
Heartbeat CPU 0 instructions: 91000002 cycles: 212732803 heartbeat IPC: 0.479177 cumulative IPC: 0.391751 (Simulation time: 2 hr 55 min 23 sec) 
Heartbeat CPU 0 instructions: 92000000 cycles: 214876284 heartbeat IPC: 0.46653 cumulative IPC: 0.392518 (Simulation time: 2 hr 55 min 57 sec) 
Heartbeat CPU 0 instructions: 93000001 cycles: 217028399 heartbeat IPC: 0.46466 cumulative IPC: 0.393254 (Simulation time: 2 hr 56 min 31 sec) 
Heartbeat CPU 0 instructions: 94000003 cycles: 219196654 heartbeat IPC: 0.461201 cumulative IPC: 0.393945 (Simulation time: 2 hr 57 min 6 sec) 
Heartbeat CPU 0 instructions: 95000002 cycles: 221286715 heartbeat IPC: 0.478454 cumulative IPC: 0.394765 (Simulation time: 2 hr 57 min 36 sec) 
Heartbeat CPU 0 instructions: 96000000 cycles: 223380078 heartbeat IPC: 0.477699 cumulative IPC: 0.395564 (Simulation time: 2 hr 58 min 5 sec) 
Heartbeat CPU 0 instructions: 97000002 cycles: 225545873 heartbeat IPC: 0.461725 cumulative IPC: 0.396216 (Simulation time: 2 hr 58 min 34 sec) 
Heartbeat CPU 0 instructions: 98000000 cycles: 227703084 heartbeat IPC: 0.463561 cumulative IPC: 0.396871 (Simulation time: 2 hr 59 min 0 sec) 
Heartbeat CPU 0 instructions: 99000002 cycles: 229856030 heartbeat IPC: 0.464481 cumulative IPC: 0.397521 (Simulation time: 2 hr 59 min 28 sec) 
Heartbeat CPU 0 instructions: 100000000 cycles: 231948590 heartbeat IPC: 0.477883 cumulative IPC: 0.398266 (Simulation time: 2 hr 59 min 49 sec) 
Heartbeat CPU 0 instructions: 101000002 cycles: 234081633 heartbeat IPC: 0.468815 cumulative IPC: 0.398925 (Simulation time: 3 hr 0 min 9 sec) 
Heartbeat CPU 0 instructions: 102000000 cycles: 237853503 heartbeat IPC: 0.26512 cumulative IPC: 0.396749 (Simulation time: 3 hr 0 min 29 sec) 
Heartbeat CPU 0 instructions: 103000002 cycles: 243503253 heartbeat IPC: 0.176999 cumulative IPC: 0.391522 (Simulation time: 3 hr 0 min 50 sec) 
Heartbeat CPU 0 instructions: 104000000 cycles: 245624486 heartbeat IPC: 0.471423 cumulative IPC: 0.392229 (Simulation time: 3 hr 1 min 5 sec) 
Heartbeat CPU 0 instructions: 105000002 cycles: 247716312 heartbeat IPC: 0.478052 cumulative IPC: 0.392972 (Simulation time: 3 hr 1 min 18 sec) 
Heartbeat CPU 0 instructions: 106000001 cycles: 249863156 heartbeat IPC: 0.4658 cumulative IPC: 0.393613 (Simulation time: 3 hr 1 min 32 sec) 
Heartbeat CPU 0 instructions: 107000003 cycles: 252000255 heartbeat IPC: 0.467925 cumulative IPC: 0.394258 (Simulation time: 3 hr 1 min 45 sec) 
Heartbeat CPU 0 instructions: 108000000 cycles: 254166579 heartbeat IPC: 0.46161 cumulative IPC: 0.394846 (Simulation time: 3 hr 1 min 57 sec) 
Heartbeat CPU 0 instructions: 109000003 cycles: 256242681 heartbeat IPC: 0.481673 cumulative IPC: 0.395567 (Simulation time: 3 hr 2 min 7 sec) 
Heartbeat CPU 0 instructions: 110000002 cycles: 258360393 heartbeat IPC: 0.472207 cumulative IPC: 0.39621 (Simulation time: 3 hr 2 min 18 sec) 
Finished CPU 0 instructions: 100000003 cycles: 252391640 cummulative IPC: 0.39621 (Simulation time: 3 hr 2 min 18 sec) 

ChampSim completed all CPUs

Region of Interest Statistics

CPU 0 cummulative IPC: 0.39621 instructions: 100000003 cycles: 252391640
LLC TOTAL     ACCESS:    1165608  HIT:       1343  MISS:    1164265
LLC LOAD      ACCESS:     633144  HIT:        514  MISS:     632630
LLC RFO       ACCESS:     265372  HIT:        243  MISS:     265129
LLC PREFETCH  ACCESS:          0  HIT:          0  MISS:          0
LLC WRITEBACK ACCESS:     267092  HIT:        586  MISS:     266506
