
*** ChampSim Multicore Out-of-Order Simulator ***

Warmup Instructions: 10000000
Simulation Instructions: 100000000
Configuration: 1
Number of CPUs: 1
LLC sets: 2048
LLC ways: 16
Off-chip DRAM Channels: 1 Width: 64-bit Data Rate: 1600 MT/s

CPU 0 runs /datasets/cs240c-wi22-a00-public/data/Assignment2-gz/gcc_56B.trace.gz
config 1, num_core 1, llc_sets 2048
Heartbeat CPU 0 instructions: 1000003 cycles: 954243 heartbeat IPC: 1.04795 cumulative IPC: 1.04795 (Simulation time: 0 hr 2 min 7 sec) 
Heartbeat CPU 0 instructions: 2000001 cycles: 1898539 heartbeat IPC: 1.05899 cumulative IPC: 1.05344 (Simulation time: 0 hr 4 min 25 sec) 
Heartbeat CPU 0 instructions: 3000001 cycles: 2885903 heartbeat IPC: 1.0128 cumulative IPC: 1.03954 (Simulation time: 0 hr 6 min 39 sec) 
Heartbeat CPU 0 instructions: 4000000 cycles: 3848649 heartbeat IPC: 1.03869 cumulative IPC: 1.03933 (Simulation time: 0 hr 8 min 43 sec) 
Heartbeat CPU 0 instructions: 5000002 cycles: 4738273 heartbeat IPC: 1.12407 cumulative IPC: 1.05524 (Simulation time: 0 hr 10 min 58 sec) 
Heartbeat CPU 0 instructions: 6000000 cycles: 5686336 heartbeat IPC: 1.05478 cumulative IPC: 1.05516 (Simulation time: 0 hr 13 min 12 sec) 
Heartbeat CPU 0 instructions: 7000000 cycles: 6650697 heartbeat IPC: 1.03696 cumulative IPC: 1.05252 (Simulation time: 0 hr 15 min 33 sec) 
Heartbeat CPU 0 instructions: 8000000 cycles: 7612038 heartbeat IPC: 1.04021 cumulative IPC: 1.05097 (Simulation time: 0 hr 17 min 48 sec) 
Heartbeat CPU 0 instructions: 9000000 cycles: 8623642 heartbeat IPC: 0.988529 cumulative IPC: 1.04364 (Simulation time: 0 hr 20 min 10 sec) 
Heartbeat CPU 0 instructions: 10000002 cycles: 9584284 heartbeat IPC: 1.04097 cumulative IPC: 1.04338 (Simulation time: 0 hr 22 min 39 sec) 

Warmup complete CPU 0 instructions: 10000002 cycles: 9584284 (Simulation time: 0 hr 22 min 39 sec) 

Heartbeat CPU 0 instructions: 11000000 cycles: 10947792 heartbeat IPC: 0.733401 cumulative IPC: 0.733401 (Simulation time: 0 hr 24 min 42 sec) 
Heartbeat CPU 0 instructions: 12000000 cycles: 12387198 heartbeat IPC: 0.694731 cumulative IPC: 0.713542 (Simulation time: 0 hr 26 min 38 sec) 
Heartbeat CPU 0 instructions: 13000001 cycles: 13782951 heartbeat IPC: 0.71646 cumulative IPC: 0.714512 (Simulation time: 0 hr 28 min 34 sec) 
Heartbeat CPU 0 instructions: 14000000 cycles: 15121752 heartbeat IPC: 0.746936 cumulative IPC: 0.722351 (Simulation time: 0 hr 30 min 30 sec) 
Heartbeat CPU 0 instructions: 15000003 cycles: 16507022 heartbeat IPC: 0.721883 cumulative IPC: 0.722258 (Simulation time: 0 hr 32 min 20 sec) 
Heartbeat CPU 0 instructions: 16000000 cycles: 17839293 heartbeat IPC: 0.750596 cumulative IPC: 0.726831 (Simulation time: 0 hr 34 min 12 sec) 
Heartbeat CPU 0 instructions: 17000001 cycles: 19169558 heartbeat IPC: 0.751731 cumulative IPC: 0.730287 (Simulation time: 0 hr 36 min 3 sec) 
Heartbeat CPU 0 instructions: 18000000 cycles: 20568611 heartbeat IPC: 0.714768 cumulative IPC: 0.72831 (Simulation time: 0 hr 37 min 48 sec) 
Heartbeat CPU 0 instructions: 19000000 cycles: 21952745 heartbeat IPC: 0.722473 cumulative IPC: 0.727657 (Simulation time: 0 hr 39 min 29 sec) 
Heartbeat CPU 0 instructions: 20000000 cycles: 23324866 heartbeat IPC: 0.728799 cumulative IPC: 0.727771 (Simulation time: 0 hr 41 min 12 sec) 
Heartbeat CPU 0 instructions: 21000000 cycles: 24675894 heartbeat IPC: 0.740177 cumulative IPC: 0.728882 (Simulation time: 0 hr 42 min 51 sec) 
Heartbeat CPU 0 instructions: 22000000 cycles: 26008565 heartbeat IPC: 0.750373 cumulative IPC: 0.730625 (Simulation time: 0 hr 44 min 35 sec) 
Heartbeat CPU 0 instructions: 23000000 cycles: 27348776 heartbeat IPC: 0.746151 cumulative IPC: 0.731797 (Simulation time: 0 hr 46 min 16 sec) 
Heartbeat CPU 0 instructions: 24000000 cycles: 28719693 heartbeat IPC: 0.729439 cumulative IPC: 0.731628 (Simulation time: 0 hr 47 min 52 sec) 
Heartbeat CPU 0 instructions: 25000000 cycles: 30100646 heartbeat IPC: 0.724138 cumulative IPC: 0.731124 (Simulation time: 0 hr 49 min 33 sec) 
Heartbeat CPU 0 instructions: 26000002 cycles: 31519004 heartbeat IPC: 0.705042 cumulative IPC: 0.729437 (Simulation time: 0 hr 51 min 13 sec) 
Heartbeat CPU 0 instructions: 27000000 cycles: 32910960 heartbeat IPC: 0.718412 cumulative IPC: 0.728779 (Simulation time: 0 hr 52 min 48 sec) 
Heartbeat CPU 0 instructions: 28000000 cycles: 34254062 heartbeat IPC: 0.744545 cumulative IPC: 0.729638 (Simulation time: 0 hr 54 min 30 sec) 
Heartbeat CPU 0 instructions: 29000000 cycles: 35602301 heartbeat IPC: 0.741708 cumulative IPC: 0.730263 (Simulation time: 0 hr 56 min 6 sec) 
Heartbeat CPU 0 instructions: 30000000 cycles: 36957737 heartbeat IPC: 0.73777 cumulative IPC: 0.730635 (Simulation time: 0 hr 57 min 46 sec) 
Heartbeat CPU 0 instructions: 31000000 cycles: 38320738 heartbeat IPC: 0.733675 cumulative IPC: 0.730779 (Simulation time: 0 hr 59 min 23 sec) 
Heartbeat CPU 0 instructions: 32000000 cycles: 39709040 heartbeat IPC: 0.720304 cumulative IPC: 0.730296 (Simulation time: 1 hr 0 min 57 sec) 
Heartbeat CPU 0 instructions: 33000002 cycles: 41126281 heartbeat IPC: 0.705598 cumulative IPC: 0.729187 (Simulation time: 1 hr 2 min 37 sec) 
Heartbeat CPU 0 instructions: 34000002 cycles: 42498634 heartbeat IPC: 0.728675 cumulative IPC: 0.729165 (Simulation time: 1 hr 4 min 17 sec) 
Heartbeat CPU 0 instructions: 35000002 cycles: 43856625 heartbeat IPC: 0.736382 cumulative IPC: 0.729451 (Simulation time: 1 hr 5 min 56 sec) 
Heartbeat CPU 0 instructions: 36000000 cycles: 45194123 heartbeat IPC: 0.747663 cumulative IPC: 0.730135 (Simulation time: 1 hr 7 min 38 sec) 
Heartbeat CPU 0 instructions: 37000000 cycles: 46516606 heartbeat IPC: 0.756153 cumulative IPC: 0.731067 (Simulation time: 1 hr 9 min 20 sec) 
Heartbeat CPU 0 instructions: 38000002 cycles: 47862735 heartbeat IPC: 0.742872 cumulative IPC: 0.731482 (Simulation time: 1 hr 10 min 55 sec) 
Heartbeat CPU 0 instructions: 39000000 cycles: 49277358 heartbeat IPC: 0.706901 cumulative IPC: 0.730606 (Simulation time: 1 hr 12 min 41 sec) 
Heartbeat CPU 0 instructions: 40000000 cycles: 50651460 heartbeat IPC: 0.727748 cumulative IPC: 0.73051 (Simulation time: 1 hr 14 min 25 sec) 
Heartbeat CPU 0 instructions: 41000001 cycles: 52002675 heartbeat IPC: 0.740075 cumulative IPC: 0.730815 (Simulation time: 1 hr 16 min 13 sec) 
Heartbeat CPU 0 instructions: 42000003 cycles: 53344165 heartbeat IPC: 0.745441 cumulative IPC: 0.731263 (Simulation time: 1 hr 17 min 56 sec) 
Heartbeat CPU 0 instructions: 43000001 cycles: 54691840 heartbeat IPC: 0.742017 cumulative IPC: 0.731585 (Simulation time: 1 hr 19 min 39 sec) 
Heartbeat CPU 0 instructions: 44000000 cycles: 56031274 heartbeat IPC: 0.746583 cumulative IPC: 0.732017 (Simulation time: 1 hr 21 min 22 sec) 
Heartbeat CPU 0 instructions: 45000000 cycles: 57417642 heartbeat IPC: 0.721309 cumulative IPC: 0.731707 (Simulation time: 1 hr 23 min 2 sec) 
Heartbeat CPU 0 instructions: 46000000 cycles: 58822158 heartbeat IPC: 0.711989 cumulative IPC: 0.731144 (Simulation time: 1 hr 24 min 47 sec) 
Heartbeat CPU 0 instructions: 47000002 cycles: 60210466 heartbeat IPC: 0.720303 cumulative IPC: 0.730847 (Simulation time: 1 hr 26 min 25 sec) 
Heartbeat CPU 0 instructions: 48000000 cycles: 61570152 heartbeat IPC: 0.735462 cumulative IPC: 0.730968 (Simulation time: 1 hr 28 min 12 sec) 
Heartbeat CPU 0 instructions: 49000002 cycles: 62908488 heartbeat IPC: 0.747198 cumulative IPC: 0.731375 (Simulation time: 1 hr 29 min 52 sec) 
Heartbeat CPU 0 instructions: 50000000 cycles: 64244635 heartbeat IPC: 0.748419 cumulative IPC: 0.731792 (Simulation time: 1 hr 31 min 33 sec) 
Heartbeat CPU 0 instructions: 51000000 cycles: 65615326 heartbeat IPC: 0.729559 cumulative IPC: 0.731737 (Simulation time: 1 hr 33 min 15 sec) 
Heartbeat CPU 0 instructions: 52000000 cycles: 67024808 heartbeat IPC: 0.709481 cumulative IPC: 0.731191 (Simulation time: 1 hr 34 min 52 sec) 
Heartbeat CPU 0 instructions: 53000001 cycles: 68377034 heartbeat IPC: 0.739522 cumulative IPC: 0.731383 (Simulation time: 1 hr 36 min 28 sec) 
Heartbeat CPU 0 instructions: 54000000 cycles: 69705604 heartbeat IPC: 0.752688 cumulative IPC: 0.731853 (Simulation time: 1 hr 38 min 7 sec) 
Heartbeat CPU 0 instructions: 55000001 cycles: 71026757 heartbeat IPC: 0.756915 cumulative IPC: 0.732392 (Simulation time: 1 hr 39 min 51 sec) 
Heartbeat CPU 0 instructions: 56000000 cycles: 72366376 heartbeat IPC: 0.74648 cumulative IPC: 0.732693 (Simulation time: 1 hr 41 min 30 sec) 
Heartbeat CPU 0 instructions: 57000001 cycles: 73715957 heartbeat IPC: 0.740971 cumulative IPC: 0.732867 (Simulation time: 1 hr 43 min 9 sec) 
Heartbeat CPU 0 instructions: 58000000 cycles: 75109228 heartbeat IPC: 0.717735 cumulative IPC: 0.732545 (Simulation time: 1 hr 44 min 50 sec) 
Heartbeat CPU 0 instructions: 59000000 cycles: 76522617 heartbeat IPC: 0.707519 cumulative IPC: 0.732017 (Simulation time: 1 hr 46 min 28 sec) 
Heartbeat CPU 0 instructions: 60000000 cycles: 77915337 heartbeat IPC: 0.718019 cumulative IPC: 0.731732 (Simulation time: 1 hr 48 min 9 sec) 
Heartbeat CPU 0 instructions: 61000000 cycles: 79258988 heartbeat IPC: 0.744241 cumulative IPC: 0.731973 (Simulation time: 1 hr 49 min 50 sec) 
Heartbeat CPU 0 instructions: 62000002 cycles: 80635731 heartbeat IPC: 0.726353 cumulative IPC: 0.731864 (Simulation time: 1 hr 51 min 33 sec) 
Heartbeat CPU 0 instructions: 63000003 cycles: 81964742 heartbeat IPC: 0.75244 cumulative IPC: 0.732242 (Simulation time: 1 hr 53 min 16 sec) 
Heartbeat CPU 0 instructions: 64000000 cycles: 83300558 heartbeat IPC: 0.748604 cumulative IPC: 0.732538 (Simulation time: 1 hr 55 min 3 sec) 
Heartbeat CPU 0 instructions: 65000000 cycles: 84665131 heartbeat IPC: 0.73283 cumulative IPC: 0.732544 (Simulation time: 1 hr 56 min 42 sec) 
Heartbeat CPU 0 instructions: 66000002 cycles: 86076680 heartbeat IPC: 0.708443 cumulative IPC: 0.732099 (Simulation time: 1 hr 58 min 25 sec) 
Heartbeat CPU 0 instructions: 67000002 cycles: 87482167 heartbeat IPC: 0.711497 cumulative IPC: 0.731727 (Simulation time: 2 hr 0 min 9 sec) 
Heartbeat CPU 0 instructions: 68000000 cycles: 88848051 heartbeat IPC: 0.732125 cumulative IPC: 0.731734 (Simulation time: 2 hr 1 min 51 sec) 
Heartbeat CPU 0 instructions: 69000000 cycles: 90189167 heartbeat IPC: 0.745648 cumulative IPC: 0.731966 (Simulation time: 2 hr 3 min 31 sec) 
Heartbeat CPU 0 instructions: 70000000 cycles: 91530905 heartbeat IPC: 0.745302 cumulative IPC: 0.732184 (Simulation time: 2 hr 5 min 13 sec) 
Heartbeat CPU 0 instructions: 71000003 cycles: 92888167 heartbeat IPC: 0.73678 cumulative IPC: 0.732259 (Simulation time: 2 hr 6 min 56 sec) 
Heartbeat CPU 0 instructions: 72000000 cycles: 94245232 heartbeat IPC: 0.736882 cumulative IPC: 0.732333 (Simulation time: 2 hr 8 min 33 sec) 
Heartbeat CPU 0 instructions: 73000003 cycles: 95633410 heartbeat IPC: 0.720371 cumulative IPC: 0.73214 (Simulation time: 2 hr 10 min 13 sec) 
Heartbeat CPU 0 instructions: 74000001 cycles: 97049540 heartbeat IPC: 0.706148 cumulative IPC: 0.731719 (Simulation time: 2 hr 11 min 57 sec) 
Heartbeat CPU 0 instructions: 75000003 cycles: 98440750 heartbeat IPC: 0.7188 cumulative IPC: 0.731517 (Simulation time: 2 hr 13 min 39 sec) 
Heartbeat CPU 0 instructions: 76000000 cycles: 99798543 heartbeat IPC: 0.736487 cumulative IPC: 0.731592 (Simulation time: 2 hr 15 min 18 sec) 
Heartbeat CPU 0 instructions: 77000003 cycles: 101147711 heartbeat IPC: 0.7412 cumulative IPC: 0.731733 (Simulation time: 2 hr 17 min 2 sec) 
Heartbeat CPU 0 instructions: 78000001 cycles: 102494173 heartbeat IPC: 0.742686 cumulative IPC: 0.731892 (Simulation time: 2 hr 18 min 44 sec) 
Heartbeat CPU 0 instructions: 79000000 cycles: 103869201 heartbeat IPC: 0.727257 cumulative IPC: 0.731824 (Simulation time: 2 hr 20 min 23 sec) 
Heartbeat CPU 0 instructions: 80000000 cycles: 105231961 heartbeat IPC: 0.733805 cumulative IPC: 0.731853 (Simulation time: 2 hr 22 min 12 sec) 
Heartbeat CPU 0 instructions: 81000002 cycles: 106627050 heartbeat IPC: 0.716802 cumulative IPC: 0.731636 (Simulation time: 2 hr 23 min 53 sec) 
Heartbeat CPU 0 instructions: 82000000 cycles: 108014020 heartbeat IPC: 0.720995 cumulative IPC: 0.731486 (Simulation time: 2 hr 25 min 25 sec) 
Heartbeat CPU 0 instructions: 83000003 cycles: 109361403 heartbeat IPC: 0.742182 cumulative IPC: 0.731631 (Simulation time: 2 hr 26 min 59 sec) 
Heartbeat CPU 0 instructions: 84000000 cycles: 110721632 heartbeat IPC: 0.735168 cumulative IPC: 0.731678 (Simulation time: 2 hr 28 min 23 sec) 
Heartbeat CPU 0 instructions: 85000002 cycles: 112048873 heartbeat IPC: 0.753444 cumulative IPC: 0.73196 (Simulation time: 2 hr 29 min 46 sec) 
Heartbeat CPU 0 instructions: 86000003 cycles: 113365981 heartbeat IPC: 0.75924 cumulative IPC: 0.732306 (Simulation time: 2 hr 31 min 10 sec) 
Heartbeat CPU 0 instructions: 87000000 cycles: 114769246 heartbeat IPC: 0.712622 cumulative IPC: 0.732044 (Simulation time: 2 hr 32 min 26 sec) 
Heartbeat CPU 0 instructions: 88000000 cycles: 116135034 heartbeat IPC: 0.732178 cumulative IPC: 0.732046 (Simulation time: 2 hr 33 min 43 sec) 
Heartbeat CPU 0 instructions: 89000000 cycles: 117512396 heartbeat IPC: 0.726026 cumulative IPC: 0.731969 (Simulation time: 2 hr 34 min 57 sec) 
Heartbeat CPU 0 instructions: 90000000 cycles: 118844718 heartbeat IPC: 0.750569 cumulative IPC: 0.732195 (Simulation time: 2 hr 36 min 8 sec) 
Heartbeat CPU 0 instructions: 91000001 cycles: 120166867 heartbeat IPC: 0.756345 cumulative IPC: 0.732484 (Simulation time: 2 hr 37 min 15 sec) 
Heartbeat CPU 0 instructions: 92000000 cycles: 121499951 heartbeat IPC: 0.75014 cumulative IPC: 0.732695 (Simulation time: 2 hr 38 min 23 sec) 
Heartbeat CPU 0 instructions: 93000003 cycles: 122901480 heartbeat IPC: 0.713509 cumulative IPC: 0.732457 (Simulation time: 2 hr 39 min 29 sec) 
Heartbeat CPU 0 instructions: 94000000 cycles: 124260509 heartbeat IPC: 0.735817 cumulative IPC: 0.732497 (Simulation time: 2 hr 40 min 34 sec) 
Heartbeat CPU 0 instructions: 95000000 cycles: 125627574 heartbeat IPC: 0.731494 cumulative IPC: 0.732485 (Simulation time: 2 hr 41 min 38 sec) 
Heartbeat CPU 0 instructions: 96000000 cycles: 126975343 heartbeat IPC: 0.741967 cumulative IPC: 0.732594 (Simulation time: 2 hr 42 min 39 sec) 
Heartbeat CPU 0 instructions: 97000000 cycles: 128299258 heartbeat IPC: 0.755336 cumulative IPC: 0.732848 (Simulation time: 2 hr 43 min 41 sec) 
Heartbeat CPU 0 instructions: 98000003 cycles: 129626972 heartbeat IPC: 0.753177 cumulative IPC: 0.733073 (Simulation time: 2 hr 44 min 38 sec) 
Heartbeat CPU 0 instructions: 99000000 cycles: 131036249 heartbeat IPC: 0.709582 cumulative IPC: 0.7328 (Simulation time: 2 hr 45 min 38 sec) 
Heartbeat CPU 0 instructions: 100000000 cycles: 132398522 heartbeat IPC: 0.734067 cumulative IPC: 0.732814 (Simulation time: 2 hr 46 min 43 sec) 
Heartbeat CPU 0 instructions: 101000000 cycles: 133763015 heartbeat IPC: 0.732873 cumulative IPC: 0.732815 (Simulation time: 2 hr 47 min 50 sec) 
Heartbeat CPU 0 instructions: 102000001 cycles: 135090257 heartbeat IPC: 0.753443 cumulative IPC: 0.733033 (Simulation time: 2 hr 48 min 51 sec) 
Heartbeat CPU 0 instructions: 103000001 cycles: 136407682 heartbeat IPC: 0.759057 cumulative IPC: 0.733303 (Simulation time: 2 hr 49 min 51 sec) 
Heartbeat CPU 0 instructions: 104000000 cycles: 137726701 heartbeat IPC: 0.758138 cumulative IPC: 0.733559 (Simulation time: 2 hr 50 min 41 sec) 
Heartbeat CPU 0 instructions: 105000002 cycles: 139126986 heartbeat IPC: 0.714142 cumulative IPC: 0.733349 (Simulation time: 2 hr 51 min 24 sec) 
Heartbeat CPU 0 instructions: 106000000 cycles: 140553498 heartbeat IPC: 0.701009 cumulative IPC: 0.732997 (Simulation time: 2 hr 52 min 7 sec) 
Heartbeat CPU 0 instructions: 107000002 cycles: 141960353 heartbeat IPC: 0.710807 cumulative IPC: 0.732761 (Simulation time: 2 hr 52 min 54 sec) 
Heartbeat CPU 0 instructions: 108000000 cycles: 143332055 heartbeat IPC: 0.72902 cumulative IPC: 0.732722 (Simulation time: 2 hr 53 min 36 sec) 
Heartbeat CPU 0 instructions: 109000000 cycles: 144684188 heartbeat IPC: 0.739572 cumulative IPC: 0.732791 (Simulation time: 2 hr 54 min 16 sec) 
Heartbeat CPU 0 instructions: 110000000 cycles: 146031229 heartbeat IPC: 0.742368 cumulative IPC: 0.732886 (Simulation time: 2 hr 54 min 54 sec) 
Finished CPU 0 instructions: 100000003 cycles: 136446947 cummulative IPC: 0.732886 (Simulation time: 2 hr 54 min 54 sec) 

ChampSim completed all CPUs

Region of Interest Statistics

CPU 0 cummulative IPC: 0.732886 instructions: 100000003 cycles: 136446947
LLC TOTAL     ACCESS:   21200174  HIT:   21133626  MISS:      66548
LLC LOAD      ACCESS:     194764  HIT:     149718  MISS:      45046
LLC RFO       ACCESS:   10471722  HIT:   10461785  MISS:       9937
LLC PREFETCH  ACCESS:          0  HIT:          0  MISS:          0
LLC WRITEBACK ACCESS:   10533688  HIT:   10522123  MISS:      11565
