
*** ChampSim Multicore Out-of-Order Simulator ***

Warmup Instructions: 10000000
Simulation Instructions: 100000000
Configuration: 1
Number of CPUs: 1
LLC sets: 2048
LLC ways: 16
Off-chip DRAM Channels: 1 Width: 64-bit Data Rate: 1600 MT/s

CPU 0 runs /datasets/cs240c-wi22-a00-public/data/Assignment2-gz/perlbench_135B.trace.gz
config 1, num_core 1, llc_sets 2048
Heartbeat CPU 0 instructions: 1000000 cycles: 601518 heartbeat IPC: 1.66246 cumulative IPC: 1.66246 (Simulation time: 0 hr 1 min 50 sec) 
Heartbeat CPU 0 instructions: 2000000 cycles: 1212709 heartbeat IPC: 1.63615 cumulative IPC: 1.6492 (Simulation time: 0 hr 3 min 32 sec) 
Heartbeat CPU 0 instructions: 3000000 cycles: 1837801 heartbeat IPC: 1.59976 cumulative IPC: 1.63239 (Simulation time: 0 hr 5 min 21 sec) 
Heartbeat CPU 0 instructions: 4000000 cycles: 2499009 heartbeat IPC: 1.51238 cumulative IPC: 1.60063 (Simulation time: 0 hr 7 min 9 sec) 
Heartbeat CPU 0 instructions: 5000001 cycles: 3086953 heartbeat IPC: 1.70084 cumulative IPC: 1.61972 (Simulation time: 0 hr 8 min 42 sec) 
Heartbeat CPU 0 instructions: 6000002 cycles: 3690902 heartbeat IPC: 1.65577 cumulative IPC: 1.62562 (Simulation time: 0 hr 10 min 19 sec) 
Heartbeat CPU 0 instructions: 7000001 cycles: 4294434 heartbeat IPC: 1.65691 cumulative IPC: 1.63002 (Simulation time: 0 hr 11 min 57 sec) 
Heartbeat CPU 0 instructions: 8000000 cycles: 4905675 heartbeat IPC: 1.63601 cumulative IPC: 1.63076 (Simulation time: 0 hr 13 min 29 sec) 
Heartbeat CPU 0 instructions: 9000001 cycles: 5547624 heartbeat IPC: 1.55776 cumulative IPC: 1.62232 (Simulation time: 0 hr 15 min 8 sec) 
Heartbeat CPU 0 instructions: 10000000 cycles: 6207929 heartbeat IPC: 1.51445 cumulative IPC: 1.61084 (Simulation time: 0 hr 16 min 44 sec) 

Warmup complete CPU 0 instructions: 10000004 cycles: 6207930 (Simulation time: 0 hr 16 min 44 sec) 

Heartbeat CPU 0 instructions: 11000003 cycles: 8973529 heartbeat IPC: 0.361586 cumulative IPC: 0.361585 (Simulation time: 0 hr 18 min 56 sec) 
Heartbeat CPU 0 instructions: 12000000 cycles: 11334242 heartbeat IPC: 0.4236 cumulative IPC: 0.390143 (Simulation time: 0 hr 20 min 57 sec) 
Heartbeat CPU 0 instructions: 13000000 cycles: 13930997 heartbeat IPC: 0.385096 cumulative IPC: 0.388446 (Simulation time: 0 hr 23 min 5 sec) 
Heartbeat CPU 0 instructions: 14000000 cycles: 17091557 heartbeat IPC: 0.3164 cumulative IPC: 0.367524 (Simulation time: 0 hr 24 min 59 sec) 
Heartbeat CPU 0 instructions: 15000003 cycles: 19800831 heartbeat IPC: 0.369104 cumulative IPC: 0.367839 (Simulation time: 0 hr 26 min 50 sec) 
Heartbeat CPU 0 instructions: 16000000 cycles: 22443876 heartbeat IPC: 0.37835 cumulative IPC: 0.36955 (Simulation time: 0 hr 28 min 40 sec) 
Heartbeat CPU 0 instructions: 17000000 cycles: 25178794 heartbeat IPC: 0.365642 cumulative IPC: 0.368987 (Simulation time: 0 hr 30 min 31 sec) 
Heartbeat CPU 0 instructions: 18000000 cycles: 27898700 heartbeat IPC: 0.36766 cumulative IPC: 0.36882 (Simulation time: 0 hr 32 min 22 sec) 
Heartbeat CPU 0 instructions: 19000003 cycles: 30543397 heartbeat IPC: 0.378116 cumulative IPC: 0.369831 (Simulation time: 0 hr 34 min 15 sec) 
Heartbeat CPU 0 instructions: 20000000 cycles: 33192984 heartbeat IPC: 0.377416 cumulative IPC: 0.370575 (Simulation time: 0 hr 36 min 5 sec) 
Heartbeat CPU 0 instructions: 21000000 cycles: 35834811 heartbeat IPC: 0.378526 cumulative IPC: 0.371284 (Simulation time: 0 hr 37 min 55 sec) 
Heartbeat CPU 0 instructions: 22000002 cycles: 38475171 heartbeat IPC: 0.378737 cumulative IPC: 0.371894 (Simulation time: 0 hr 39 min 48 sec) 
Heartbeat CPU 0 instructions: 23000003 cycles: 41149661 heartbeat IPC: 0.373903 cumulative IPC: 0.372048 (Simulation time: 0 hr 41 min 56 sec) 
Heartbeat CPU 0 instructions: 24000000 cycles: 43270875 heartbeat IPC: 0.471427 cumulative IPC: 0.377736 (Simulation time: 0 hr 43 min 43 sec) 
Heartbeat CPU 0 instructions: 25000000 cycles: 45886308 heartbeat IPC: 0.382346 cumulative IPC: 0.37804 (Simulation time: 0 hr 45 min 56 sec) 
Heartbeat CPU 0 instructions: 26000001 cycles: 48492181 heartbeat IPC: 0.383749 cumulative IPC: 0.378391 (Simulation time: 0 hr 47 min 46 sec) 
Heartbeat CPU 0 instructions: 27000000 cycles: 51173567 heartbeat IPC: 0.372941 cumulative IPC: 0.378066 (Simulation time: 0 hr 49 min 31 sec) 
Heartbeat CPU 0 instructions: 28000000 cycles: 53824896 heartbeat IPC: 0.377169 cumulative IPC: 0.378016 (Simulation time: 0 hr 51 min 17 sec) 
Heartbeat CPU 0 instructions: 29000000 cycles: 56461507 heartbeat IPC: 0.379275 cumulative IPC: 0.378082 (Simulation time: 0 hr 53 min 3 sec) 
Heartbeat CPU 0 instructions: 30000000 cycles: 59194936 heartbeat IPC: 0.365841 cumulative IPC: 0.377451 (Simulation time: 0 hr 54 min 50 sec) 
Heartbeat CPU 0 instructions: 31000001 cycles: 61842735 heartbeat IPC: 0.377673 cumulative IPC: 0.377461 (Simulation time: 0 hr 56 min 29 sec) 
Heartbeat CPU 0 instructions: 32000000 cycles: 64503475 heartbeat IPC: 0.375835 cumulative IPC: 0.377387 (Simulation time: 0 hr 58 min 16 sec) 
Heartbeat CPU 0 instructions: 33000000 cycles: 67140892 heartbeat IPC: 0.379159 cumulative IPC: 0.377464 (Simulation time: 0 hr 59 min 59 sec) 
Heartbeat CPU 0 instructions: 34000001 cycles: 69760972 heartbeat IPC: 0.381668 cumulative IPC: 0.377637 (Simulation time: 1 hr 1 min 47 sec) 
Heartbeat CPU 0 instructions: 35000003 cycles: 72416715 heartbeat IPC: 0.376543 cumulative IPC: 0.377593 (Simulation time: 1 hr 3 min 42 sec) 
Heartbeat CPU 0 instructions: 36000000 cycles: 74728554 heartbeat IPC: 0.432555 cumulative IPC: 0.379448 (Simulation time: 1 hr 5 min 34 sec) 
Heartbeat CPU 0 instructions: 37000000 cycles: 77017283 heartbeat IPC: 0.436924 cumulative IPC: 0.381306 (Simulation time: 1 hr 7 min 33 sec) 
Heartbeat CPU 0 instructions: 38000000 cycles: 79114782 heartbeat IPC: 0.476758 cumulative IPC: 0.384052 (Simulation time: 1 hr 9 min 23 sec) 
Heartbeat CPU 0 instructions: 39000000 cycles: 81423138 heartbeat IPC: 0.433209 cumulative IPC: 0.38556 (Simulation time: 1 hr 11 min 14 sec) 
Heartbeat CPU 0 instructions: 40000000 cycles: 83375925 heartbeat IPC: 0.512089 cumulative IPC: 0.388762 (Simulation time: 1 hr 12 min 51 sec) 
Heartbeat CPU 0 instructions: 41000001 cycles: 85465635 heartbeat IPC: 0.478536 cumulative IPC: 0.391129 (Simulation time: 1 hr 14 min 34 sec) 
Heartbeat CPU 0 instructions: 42000003 cycles: 88164266 heartbeat IPC: 0.370559 cumulative IPC: 0.390452 (Simulation time: 1 hr 16 min 31 sec) 
Heartbeat CPU 0 instructions: 43000001 cycles: 90723875 heartbeat IPC: 0.390684 cumulative IPC: 0.390459 (Simulation time: 1 hr 18 min 32 sec) 
Heartbeat CPU 0 instructions: 44000000 cycles: 93023564 heartbeat IPC: 0.434841 cumulative IPC: 0.391634 (Simulation time: 1 hr 20 min 32 sec) 
Heartbeat CPU 0 instructions: 45000003 cycles: 95683098 heartbeat IPC: 0.376007 cumulative IPC: 0.39117 (Simulation time: 1 hr 22 min 34 sec) 
Heartbeat CPU 0 instructions: 46000003 cycles: 98377097 heartbeat IPC: 0.371195 cumulative IPC: 0.390586 (Simulation time: 1 hr 24 min 27 sec) 
Heartbeat CPU 0 instructions: 47000000 cycles: 101019428 heartbeat IPC: 0.378453 cumulative IPC: 0.390248 (Simulation time: 1 hr 26 min 20 sec) 
Heartbeat CPU 0 instructions: 48000000 cycles: 103647755 heartbeat IPC: 0.38047 cumulative IPC: 0.389984 (Simulation time: 1 hr 28 min 10 sec) 
Heartbeat CPU 0 instructions: 49000000 cycles: 106338887 heartbeat IPC: 0.371591 cumulative IPC: 0.38949 (Simulation time: 1 hr 29 min 55 sec) 
Heartbeat CPU 0 instructions: 50000001 cycles: 108986110 heartbeat IPC: 0.377755 cumulative IPC: 0.389188 (Simulation time: 1 hr 31 min 42 sec) 
Heartbeat CPU 0 instructions: 51000000 cycles: 111619643 heartbeat IPC: 0.379718 cumulative IPC: 0.388951 (Simulation time: 1 hr 33 min 34 sec) 
Heartbeat CPU 0 instructions: 52000000 cycles: 114244302 heartbeat IPC: 0.381002 cumulative IPC: 0.388758 (Simulation time: 1 hr 35 min 24 sec) 
Heartbeat CPU 0 instructions: 53000000 cycles: 116844496 heartbeat IPC: 0.384587 cumulative IPC: 0.38866 (Simulation time: 1 hr 37 min 14 sec) 
Heartbeat CPU 0 instructions: 54000001 cycles: 119499680 heartbeat IPC: 0.376622 cumulative IPC: 0.388378 (Simulation time: 1 hr 39 min 7 sec) 
Heartbeat CPU 0 instructions: 55000001 cycles: 121939859 heartbeat IPC: 0.409806 cumulative IPC: 0.38883 (Simulation time: 1 hr 41 min 10 sec) 
Heartbeat CPU 0 instructions: 56000000 cycles: 124068370 heartbeat IPC: 0.469812 cumulative IPC: 0.390292 (Simulation time: 1 hr 43 min 3 sec) 
Heartbeat CPU 0 instructions: 57000000 cycles: 126272844 heartbeat IPC: 0.453623 cumulative IPC: 0.391455 (Simulation time: 1 hr 44 min 55 sec) 
Heartbeat CPU 0 instructions: 58000002 cycles: 128220847 heartbeat IPC: 0.513347 cumulative IPC: 0.393401 (Simulation time: 1 hr 46 min 33 sec) 
Heartbeat CPU 0 instructions: 59000003 cycles: 130343798 heartbeat IPC: 0.471043 cumulative IPC: 0.394729 (Simulation time: 1 hr 48 min 18 sec) 
Heartbeat CPU 0 instructions: 60000000 cycles: 133411961 heartbeat IPC: 0.325927 cumulative IPC: 0.393069 (Simulation time: 1 hr 50 min 7 sec) 
Heartbeat CPU 0 instructions: 61000000 cycles: 135844312 heartbeat IPC: 0.411125 cumulative IPC: 0.393408 (Simulation time: 1 hr 51 min 58 sec) 
Heartbeat CPU 0 instructions: 62000001 cycles: 138705854 heartbeat IPC: 0.349462 cumulative IPC: 0.392459 (Simulation time: 1 hr 53 min 47 sec) 
Heartbeat CPU 0 instructions: 63000000 cycles: 141706078 heartbeat IPC: 0.333308 cumulative IPC: 0.391149 (Simulation time: 1 hr 55 min 39 sec) 
Heartbeat CPU 0 instructions: 64000000 cycles: 144669336 heartbeat IPC: 0.337466 cumulative IPC: 0.39 (Simulation time: 1 hr 57 min 26 sec) 
Heartbeat CPU 0 instructions: 65000001 cycles: 147650577 heartbeat IPC: 0.335431 cumulative IPC: 0.38885 (Simulation time: 1 hr 59 min 16 sec) 
Heartbeat CPU 0 instructions: 66000001 cycles: 150581482 heartbeat IPC: 0.341192 cumulative IPC: 0.387883 (Simulation time: 2 hr 1 min 12 sec) 
Heartbeat CPU 0 instructions: 67000001 cycles: 153324853 heartbeat IPC: 0.364515 cumulative IPC: 0.387447 (Simulation time: 2 hr 3 min 2 sec) 
Heartbeat CPU 0 instructions: 68000000 cycles: 156063190 heartbeat IPC: 0.365185 cumulative IPC: 0.38704 (Simulation time: 2 hr 4 min 52 sec) 
Heartbeat CPU 0 instructions: 69000002 cycles: 159062255 heartbeat IPC: 0.333438 cumulative IPC: 0.385988 (Simulation time: 2 hr 6 min 50 sec) 
Heartbeat CPU 0 instructions: 70000003 cycles: 160878191 heartbeat IPC: 0.550681 cumulative IPC: 0.387922 (Simulation time: 2 hr 8 min 24 sec) 
Heartbeat CPU 0 instructions: 71000000 cycles: 162797949 heartbeat IPC: 0.520897 cumulative IPC: 0.389552 (Simulation time: 2 hr 10 min 0 sec) 
Heartbeat CPU 0 instructions: 72000000 cycles: 164793455 heartbeat IPC: 0.501126 cumulative IPC: 0.390956 (Simulation time: 2 hr 11 min 37 sec) 
Heartbeat CPU 0 instructions: 73000000 cycles: 167075373 heartbeat IPC: 0.438228 cumulative IPC: 0.391627 (Simulation time: 2 hr 13 min 22 sec) 
Heartbeat CPU 0 instructions: 74000000 cycles: 168993897 heartbeat IPC: 0.521234 cumulative IPC: 0.393154 (Simulation time: 2 hr 14 min 57 sec) 
Heartbeat CPU 0 instructions: 75000003 cycles: 171238806 heartbeat IPC: 0.445454 cumulative IPC: 0.393866 (Simulation time: 2 hr 16 min 36 sec) 
Heartbeat CPU 0 instructions: 76000000 cycles: 173985745 heartbeat IPC: 0.36404 cumulative IPC: 0.393377 (Simulation time: 2 hr 18 min 20 sec) 
Heartbeat CPU 0 instructions: 77000000 cycles: 176684247 heartbeat IPC: 0.370576 cumulative IPC: 0.393016 (Simulation time: 2 hr 19 min 58 sec) 
Heartbeat CPU 0 instructions: 78000000 cycles: 179645357 heartbeat IPC: 0.337711 cumulative IPC: 0.392072 (Simulation time: 2 hr 21 min 58 sec) 
Heartbeat CPU 0 instructions: 79000000 cycles: 181507420 heartbeat IPC: 0.537039 cumulative IPC: 0.393612 (Simulation time: 2 hr 23 min 32 sec) 
Heartbeat CPU 0 instructions: 80000000 cycles: 183294578 heartbeat IPC: 0.559548 cumulative IPC: 0.395287 (Simulation time: 2 hr 24 min 58 sec) 
Heartbeat CPU 0 instructions: 81000000 cycles: 185216006 heartbeat IPC: 0.520446 cumulative IPC: 0.39663 (Simulation time: 2 hr 26 min 29 sec) 
Heartbeat CPU 0 instructions: 82000000 cycles: 187133615 heartbeat IPC: 0.521483 cumulative IPC: 0.397953 (Simulation time: 2 hr 27 min 57 sec) 
Heartbeat CPU 0 instructions: 83000000 cycles: 189476036 heartbeat IPC: 0.426909 cumulative IPC: 0.398324 (Simulation time: 2 hr 29 min 28 sec) 
Heartbeat CPU 0 instructions: 84000000 cycles: 191434515 heartbeat IPC: 0.5106 cumulative IPC: 0.399511 (Simulation time: 2 hr 30 min 48 sec) 
Heartbeat CPU 0 instructions: 85000000 cycles: 193355755 heartbeat IPC: 0.520497 cumulative IPC: 0.400753 (Simulation time: 2 hr 32 min 6 sec) 
Heartbeat CPU 0 instructions: 86000002 cycles: 195274350 heartbeat IPC: 0.521216 cumulative IPC: 0.401975 (Simulation time: 2 hr 33 min 23 sec) 
Heartbeat CPU 0 instructions: 87000003 cycles: 197448539 heartbeat IPC: 0.459942 cumulative IPC: 0.402634 (Simulation time: 2 hr 34 min 36 sec) 
Heartbeat CPU 0 instructions: 88000000 cycles: 200231234 heartbeat IPC: 0.359363 cumulative IPC: 0.402014 (Simulation time: 2 hr 35 min 50 sec) 
Heartbeat CPU 0 instructions: 89000003 cycles: 202803819 heartbeat IPC: 0.388715 cumulative IPC: 0.40184 (Simulation time: 2 hr 37 min 0 sec) 
Heartbeat CPU 0 instructions: 90000001 cycles: 205690448 heartbeat IPC: 0.346424 cumulative IPC: 0.401038 (Simulation time: 2 hr 38 min 10 sec) 
Heartbeat CPU 0 instructions: 91000000 cycles: 208183560 heartbeat IPC: 0.401105 cumulative IPC: 0.401038 (Simulation time: 2 hr 39 min 18 sec) 
Heartbeat CPU 0 instructions: 92000000 cycles: 210655860 heartbeat IPC: 0.404482 cumulative IPC: 0.40108 (Simulation time: 2 hr 40 min 19 sec) 
Heartbeat CPU 0 instructions: 93000000 cycles: 213371617 heartbeat IPC: 0.368221 cumulative IPC: 0.400649 (Simulation time: 2 hr 41 min 22 sec) 
Heartbeat CPU 0 instructions: 94000001 cycles: 216029423 heartbeat IPC: 0.376251 cumulative IPC: 0.40034 (Simulation time: 2 hr 42 min 25 sec) 
Heartbeat CPU 0 instructions: 95000000 cycles: 218895164 heartbeat IPC: 0.34895 cumulative IPC: 0.399648 (Simulation time: 2 hr 43 min 31 sec) 
Heartbeat CPU 0 instructions: 96000000 cycles: 221996517 heartbeat IPC: 0.32244 cumulative IPC: 0.398538 (Simulation time: 2 hr 44 min 42 sec) 
Heartbeat CPU 0 instructions: 97000001 cycles: 225027259 heartbeat IPC: 0.329953 cumulative IPC: 0.397588 (Simulation time: 2 hr 45 min 55 sec) 
Heartbeat CPU 0 instructions: 98000000 cycles: 227703105 heartbeat IPC: 0.373713 cumulative IPC: 0.3973 (Simulation time: 2 hr 46 min 53 sec) 
Heartbeat CPU 0 instructions: 99000000 cycles: 230309823 heartbeat IPC: 0.383624 cumulative IPC: 0.397141 (Simulation time: 2 hr 47 min 51 sec) 
Heartbeat CPU 0 instructions: 100000000 cycles: 232948413 heartbeat IPC: 0.37899 cumulative IPC: 0.39693 (Simulation time: 2 hr 48 min 43 sec) 
Heartbeat CPU 0 instructions: 101000001 cycles: 235561665 heartbeat IPC: 0.382665 cumulative IPC: 0.396767 (Simulation time: 2 hr 49 min 42 sec) 
Heartbeat CPU 0 instructions: 102000000 cycles: 238213891 heartbeat IPC: 0.377041 cumulative IPC: 0.396542 (Simulation time: 2 hr 50 min 32 sec) 
Heartbeat CPU 0 instructions: 103000000 cycles: 240882048 heartbeat IPC: 0.374791 cumulative IPC: 0.396294 (Simulation time: 2 hr 51 min 41 sec) 
Heartbeat CPU 0 instructions: 104000000 cycles: 243627431 heartbeat IPC: 0.364248 cumulative IPC: 0.395924 (Simulation time: 2 hr 52 min 33 sec) 
Heartbeat CPU 0 instructions: 105000001 cycles: 246239978 heartbeat IPC: 0.382769 cumulative IPC: 0.39578 (Simulation time: 2 hr 53 min 15 sec) 
Heartbeat CPU 0 instructions: 106000001 cycles: 248866523 heartbeat IPC: 0.380728 cumulative IPC: 0.395618 (Simulation time: 2 hr 54 min 0 sec) 
Heartbeat CPU 0 instructions: 107000000 cycles: 251491108 heartbeat IPC: 0.381012 cumulative IPC: 0.395461 (Simulation time: 2 hr 54 min 38 sec) 
Heartbeat CPU 0 instructions: 108000000 cycles: 254111097 heartbeat IPC: 0.381681 cumulative IPC: 0.395316 (Simulation time: 2 hr 55 min 16 sec) 
Heartbeat CPU 0 instructions: 109000001 cycles: 256688148 heartbeat IPC: 0.388041 cumulative IPC: 0.395241 (Simulation time: 2 hr 55 min 51 sec) 
Heartbeat CPU 0 instructions: 110000003 cycles: 258857692 heartbeat IPC: 0.460927 cumulative IPC: 0.395805 (Simulation time: 2 hr 56 min 21 sec) 
Finished CPU 0 instructions: 100000003 cycles: 252649763 cummulative IPC: 0.395805 (Simulation time: 2 hr 56 min 21 sec) 

ChampSim completed all CPUs

Region of Interest Statistics

CPU 0 cummulative IPC: 0.395805 instructions: 100000003 cycles: 252649763
LLC TOTAL     ACCESS:     405075  HIT:     381023  MISS:      24052
LLC LOAD      ACCESS:     285435  HIT:     267168  MISS:      18267
LLC RFO       ACCESS:      34069  HIT:      28960  MISS:       5109
LLC PREFETCH  ACCESS:          0  HIT:          0  MISS:          0
LLC WRITEBACK ACCESS:      85571  HIT:      84895  MISS:        676
