
*** ChampSim Multicore Out-of-Order Simulator ***

Warmup Instructions: 10000000
Simulation Instructions: 100000000
Configuration: 1
Number of CPUs: 1
LLC sets: 2048
LLC ways: 16
Off-chip DRAM Channels: 1 Width: 64-bit Data Rate: 1600 MT/s

CPU 0 runs /datasets/cs240c-wi22-a00-public/data/Assignment2-gz/sphinx3_2520B.trace.gz
config 1, num_core 1, llc_sets 2048
Heartbeat CPU 0 instructions: 1000003 cycles: 338265 heartbeat IPC: 2.95627 cumulative IPC: 2.95627 (Simulation time: 0 hr 1 min 20 sec) 
Heartbeat CPU 0 instructions: 2000000 cycles: 735415 heartbeat IPC: 2.51793 cumulative IPC: 2.71955 (Simulation time: 0 hr 2 min 47 sec) 
Heartbeat CPU 0 instructions: 3000003 cycles: 1180744 heartbeat IPC: 2.24554 cumulative IPC: 2.54077 (Simulation time: 0 hr 3 min 59 sec) 
Heartbeat CPU 0 instructions: 4000000 cycles: 1519149 heartbeat IPC: 2.95503 cumulative IPC: 2.63305 (Simulation time: 0 hr 5 min 14 sec) 
Heartbeat CPU 0 instructions: 5000001 cycles: 1896411 heartbeat IPC: 2.65068 cumulative IPC: 2.63656 (Simulation time: 0 hr 6 min 35 sec) 
Heartbeat CPU 0 instructions: 6000001 cycles: 2359005 heartbeat IPC: 2.16172 cumulative IPC: 2.54345 (Simulation time: 0 hr 7 min 51 sec) 
Heartbeat CPU 0 instructions: 7000002 cycles: 2697351 heartbeat IPC: 2.95556 cumulative IPC: 2.59514 (Simulation time: 0 hr 9 min 10 sec) 
Heartbeat CPU 0 instructions: 8000000 cycles: 3045569 heartbeat IPC: 2.87176 cumulative IPC: 2.62677 (Simulation time: 0 hr 10 min 29 sec) 
Heartbeat CPU 0 instructions: 9000000 cycles: 3497421 heartbeat IPC: 2.21311 cumulative IPC: 2.57332 (Simulation time: 0 hr 11 min 46 sec) 
Heartbeat CPU 0 instructions: 10000001 cycles: 3846916 heartbeat IPC: 2.86127 cumulative IPC: 2.59949 (Simulation time: 0 hr 13 min 0 sec) 

Warmup complete CPU 0 instructions: 10000001 cycles: 3846916 (Simulation time: 0 hr 13 min 0 sec) 

Heartbeat CPU 0 instructions: 11000000 cycles: 4772195 heartbeat IPC: 1.08075 cumulative IPC: 1.08075 (Simulation time: 0 hr 14 min 29 sec) 
Heartbeat CPU 0 instructions: 12000000 cycles: 6387648 heartbeat IPC: 0.619021 cumulative IPC: 0.787174 (Simulation time: 0 hr 16 min 3 sec) 
Heartbeat CPU 0 instructions: 13000002 cycles: 7695919 heartbeat IPC: 0.764369 cumulative IPC: 0.779423 (Simulation time: 0 hr 17 min 37 sec) 
Heartbeat CPU 0 instructions: 14000002 cycles: 8717930 heartbeat IPC: 0.978463 cumulative IPC: 0.821184 (Simulation time: 0 hr 19 min 6 sec) 
Heartbeat CPU 0 instructions: 15000003 cycles: 10259286 heartbeat IPC: 0.64878 cumulative IPC: 0.779743 (Simulation time: 0 hr 20 min 38 sec) 
Heartbeat CPU 0 instructions: 16000000 cycles: 11261460 heartbeat IPC: 0.997828 cumulative IPC: 0.80922 (Simulation time: 0 hr 22 min 6 sec) 
Heartbeat CPU 0 instructions: 17000000 cycles: 12288778 heartbeat IPC: 0.973408 cumulative IPC: 0.829201 (Simulation time: 0 hr 23 min 31 sec) 
Heartbeat CPU 0 instructions: 18000002 cycles: 13816316 heartbeat IPC: 0.654649 cumulative IPC: 0.802456 (Simulation time: 0 hr 25 min 12 sec) 
Heartbeat CPU 0 instructions: 19000003 cycles: 14700238 heartbeat IPC: 1.13132 cumulative IPC: 0.829239 (Simulation time: 0 hr 26 min 34 sec) 
Heartbeat CPU 0 instructions: 20000000 cycles: 15511242 heartbeat IPC: 1.23304 cumulative IPC: 0.857315 (Simulation time: 0 hr 27 min 58 sec) 
Heartbeat CPU 0 instructions: 21000001 cycles: 16837834 heartbeat IPC: 0.753812 cumulative IPC: 0.846745 (Simulation time: 0 hr 29 min 30 sec) 
Heartbeat CPU 0 instructions: 22000002 cycles: 18247564 heartbeat IPC: 0.709356 cumulative IPC: 0.833296 (Simulation time: 0 hr 31 min 1 sec) 
Heartbeat CPU 0 instructions: 23000001 cycles: 19156204 heartbeat IPC: 1.10054 cumulative IPC: 0.849158 (Simulation time: 0 hr 32 min 28 sec) 
Heartbeat CPU 0 instructions: 24000000 cycles: 19952584 heartbeat IPC: 1.25568 cumulative IPC: 0.869259 (Simulation time: 0 hr 33 min 51 sec) 
Heartbeat CPU 0 instructions: 25000003 cycles: 21361799 heartbeat IPC: 0.709617 cumulative IPC: 0.856415 (Simulation time: 0 hr 35 min 27 sec) 
Heartbeat CPU 0 instructions: 26000000 cycles: 22233357 heartbeat IPC: 1.14737 cumulative IPC: 0.870206 (Simulation time: 0 hr 36 min 50 sec) 
Heartbeat CPU 0 instructions: 27000000 cycles: 23026236 heartbeat IPC: 1.26123 cumulative IPC: 0.886371 (Simulation time: 0 hr 38 min 18 sec) 
Heartbeat CPU 0 instructions: 28000000 cycles: 24434449 heartbeat IPC: 0.71012 cumulative IPC: 0.874316 (Simulation time: 0 hr 39 min 53 sec) 
Heartbeat CPU 0 instructions: 29000003 cycles: 25291214 heartbeat IPC: 1.16718 cumulative IPC: 0.886016 (Simulation time: 0 hr 41 min 14 sec) 
Heartbeat CPU 0 instructions: 30000003 cycles: 26086167 heartbeat IPC: 1.25794 cumulative IPC: 0.899311 (Simulation time: 0 hr 42 min 40 sec) 
Heartbeat CPU 0 instructions: 31000001 cycles: 27452101 heartbeat IPC: 0.732098 cumulative IPC: 0.889635 (Simulation time: 0 hr 44 min 12 sec) 
Heartbeat CPU 0 instructions: 32000000 cycles: 28308871 heartbeat IPC: 1.16717 cumulative IPC: 0.899356 (Simulation time: 0 hr 45 min 34 sec) 
Heartbeat CPU 0 instructions: 33000000 cycles: 29122095 heartbeat IPC: 1.22967 cumulative IPC: 0.909984 (Simulation time: 0 hr 46 min 54 sec) 
Heartbeat CPU 0 instructions: 34000000 cycles: 30464758 heartbeat IPC: 0.744789 cumulative IPC: 0.901651 (Simulation time: 0 hr 48 min 22 sec) 
Heartbeat CPU 0 instructions: 35000002 cycles: 31320827 heartbeat IPC: 1.16813 cumulative IPC: 0.909954 (Simulation time: 0 hr 49 min 42 sec) 
Heartbeat CPU 0 instructions: 36000000 cycles: 32141616 heartbeat IPC: 1.21834 cumulative IPC: 0.9189 (Simulation time: 0 hr 51 min 3 sec) 
Heartbeat CPU 0 instructions: 37000000 cycles: 33496427 heartbeat IPC: 0.73811 cumulative IPC: 0.910639 (Simulation time: 0 hr 52 min 26 sec) 
Heartbeat CPU 0 instructions: 38000002 cycles: 34354351 heartbeat IPC: 1.16561 cumulative IPC: 0.917809 (Simulation time: 0 hr 53 min 45 sec) 
Heartbeat CPU 0 instructions: 39000000 cycles: 35235559 heartbeat IPC: 1.1348 cumulative IPC: 0.923901 (Simulation time: 0 hr 55 min 1 sec) 
Heartbeat CPU 0 instructions: 40000000 cycles: 36577549 heartbeat IPC: 0.745162 cumulative IPC: 0.916573 (Simulation time: 0 hr 56 min 27 sec) 
Heartbeat CPU 0 instructions: 41000001 cycles: 37430872 heartbeat IPC: 1.17189 cumulative IPC: 0.92306 (Simulation time: 0 hr 57 min 55 sec) 
Heartbeat CPU 0 instructions: 42000002 cycles: 38327142 heartbeat IPC: 1.11574 cumulative IPC: 0.928068 (Simulation time: 0 hr 59 min 14 sec) 
Heartbeat CPU 0 instructions: 43000001 cycles: 39622119 heartbeat IPC: 0.772214 cumulative IPC: 0.922427 (Simulation time: 1 hr 0 min 34 sec) 
Heartbeat CPU 0 instructions: 44000000 cycles: 40470080 heartbeat IPC: 1.1793 cumulative IPC: 0.928374 (Simulation time: 1 hr 1 min 56 sec) 
Heartbeat CPU 0 instructions: 45000001 cycles: 41364740 heartbeat IPC: 1.11774 cumulative IPC: 0.93289 (Simulation time: 1 hr 3 min 20 sec) 
Heartbeat CPU 0 instructions: 46000001 cycles: 42684210 heartbeat IPC: 0.75788 cumulative IPC: 0.926944 (Simulation time: 1 hr 4 min 42 sec) 
Heartbeat CPU 0 instructions: 47000001 cycles: 43527318 heartbeat IPC: 1.18609 cumulative IPC: 0.93245 (Simulation time: 1 hr 6 min 3 sec) 
Heartbeat CPU 0 instructions: 48000000 cycles: 44436852 heartbeat IPC: 1.09946 cumulative IPC: 0.936193 (Simulation time: 1 hr 7 min 29 sec) 
Heartbeat CPU 0 instructions: 49000001 cycles: 45711227 heartbeat IPC: 0.784699 cumulative IPC: 0.931581 (Simulation time: 1 hr 8 min 55 sec) 
Heartbeat CPU 0 instructions: 50000003 cycles: 46546972 heartbeat IPC: 1.19654 cumulative IPC: 0.936767 (Simulation time: 1 hr 10 min 18 sec) 
Heartbeat CPU 0 instructions: 51000001 cycles: 47465576 heartbeat IPC: 1.08861 cumulative IPC: 0.939965 (Simulation time: 1 hr 11 min 37 sec) 
Heartbeat CPU 0 instructions: 52000000 cycles: 48714466 heartbeat IPC: 0.80071 cumulative IPC: 0.936089 (Simulation time: 1 hr 13 min 9 sec) 
Heartbeat CPU 0 instructions: 53000001 cycles: 49558804 heartbeat IPC: 1.18436 cumulative IPC: 0.940674 (Simulation time: 1 hr 14 min 33 sec) 
Heartbeat CPU 0 instructions: 54000001 cycles: 50499049 heartbeat IPC: 1.06355 cumulative IPC: 0.943151 (Simulation time: 1 hr 16 min 4 sec) 
Heartbeat CPU 0 instructions: 55000003 cycles: 51641475 heartbeat IPC: 0.875332 cumulative IPC: 0.94153 (Simulation time: 1 hr 17 min 29 sec) 
Heartbeat CPU 0 instructions: 56000000 cycles: 52477840 heartbeat IPC: 1.19565 cumulative IPC: 0.9459 (Simulation time: 1 hr 18 min 51 sec) 
Heartbeat CPU 0 instructions: 57000000 cycles: 53486647 heartbeat IPC: 0.99127 cumulative IPC: 0.946822 (Simulation time: 1 hr 20 min 17 sec) 
Heartbeat CPU 0 instructions: 58000002 cycles: 54633876 heartbeat IPC: 0.871667 cumulative IPC: 0.945125 (Simulation time: 1 hr 21 min 45 sec) 
Heartbeat CPU 0 instructions: 59000001 cycles: 55896662 heartbeat IPC: 0.791899 cumulative IPC: 0.941407 (Simulation time: 1 hr 23 min 16 sec) 
Heartbeat CPU 0 instructions: 60000000 cycles: 56812104 heartbeat IPC: 1.09237 cumulative IPC: 0.944016 (Simulation time: 1 hr 24 min 40 sec) 
Heartbeat CPU 0 instructions: 61000001 cycles: 57665895 heartbeat IPC: 1.17125 cumulative IPC: 0.947621 (Simulation time: 1 hr 26 min 4 sec) 
Heartbeat CPU 0 instructions: 62000000 cycles: 58905472 heartbeat IPC: 0.806726 cumulative IPC: 0.944449 (Simulation time: 1 hr 27 min 34 sec) 
Heartbeat CPU 0 instructions: 63000002 cycles: 59773582 heartbeat IPC: 1.15193 cumulative IPC: 0.94767 (Simulation time: 1 hr 28 min 55 sec) 
Heartbeat CPU 0 instructions: 64000000 cycles: 60713719 heartbeat IPC: 1.06367 cumulative IPC: 0.949587 (Simulation time: 1 hr 30 min 19 sec) 
Heartbeat CPU 0 instructions: 65000003 cycles: 61890881 heartbeat IPC: 0.849503 cumulative IPC: 0.947558 (Simulation time: 1 hr 31 min 48 sec) 
Heartbeat CPU 0 instructions: 66000003 cycles: 62748768 heartbeat IPC: 1.16565 cumulative IPC: 0.950734 (Simulation time: 1 hr 33 min 10 sec) 
Heartbeat CPU 0 instructions: 67000002 cycles: 63785915 heartbeat IPC: 0.964182 cumulative IPC: 0.950967 (Simulation time: 1 hr 34 min 36 sec) 
Heartbeat CPU 0 instructions: 68000000 cycles: 64913065 heartbeat IPC: 0.887192 cumulative IPC: 0.94979 (Simulation time: 1 hr 36 min 2 sec) 
Heartbeat CPU 0 instructions: 69000003 cycles: 65775547 heartbeat IPC: 1.15945 cumulative IPC: 0.95271 (Simulation time: 1 hr 37 min 25 sec) 
Heartbeat CPU 0 instructions: 70000003 cycles: 66837277 heartbeat IPC: 0.941859 cumulative IPC: 0.952527 (Simulation time: 1 hr 38 min 50 sec) 
Heartbeat CPU 0 instructions: 71000002 cycles: 67921485 heartbeat IPC: 0.922331 cumulative IPC: 0.952016 (Simulation time: 1 hr 40 min 20 sec) 
Heartbeat CPU 0 instructions: 72000000 cycles: 68779144 heartbeat IPC: 1.16596 cumulative IPC: 0.954842 (Simulation time: 1 hr 41 min 49 sec) 
Heartbeat CPU 0 instructions: 73000003 cycles: 69855152 heartbeat IPC: 0.929364 cumulative IPC: 0.954426 (Simulation time: 1 hr 43 min 16 sec) 
Heartbeat CPU 0 instructions: 74000000 cycles: 70881415 heartbeat IPC: 0.974406 cumulative IPC: 0.954732 (Simulation time: 1 hr 44 min 44 sec) 
Heartbeat CPU 0 instructions: 75000002 cycles: 71731687 heartbeat IPC: 1.1761 cumulative IPC: 0.957505 (Simulation time: 1 hr 46 min 12 sec) 
Heartbeat CPU 0 instructions: 76000000 cycles: 72836678 heartbeat IPC: 0.904983 cumulative IPC: 0.956664 (Simulation time: 1 hr 47 min 46 sec) 
Heartbeat CPU 0 instructions: 77000003 cycles: 73865644 heartbeat IPC: 0.971852 cumulative IPC: 0.956887 (Simulation time: 1 hr 49 min 18 sec) 
Heartbeat CPU 0 instructions: 78000002 cycles: 74705145 heartbeat IPC: 1.19118 cumulative IPC: 0.959663 (Simulation time: 1 hr 50 min 48 sec) 
Heartbeat CPU 0 instructions: 79000000 cycles: 75848856 heartbeat IPC: 0.874345 cumulative IPC: 0.958308 (Simulation time: 1 hr 52 min 20 sec) 
Heartbeat CPU 0 instructions: 80000000 cycles: 76836692 heartbeat IPC: 1.01231 cumulative IPC: 0.959038 (Simulation time: 1 hr 53 min 46 sec) 
Heartbeat CPU 0 instructions: 81000000 cycles: 77660268 heartbeat IPC: 1.21422 cumulative IPC: 0.961886 (Simulation time: 1 hr 55 min 17 sec) 
Heartbeat CPU 0 instructions: 82000002 cycles: 78858770 heartbeat IPC: 0.834377 cumulative IPC: 0.959848 (Simulation time: 1 hr 56 min 48 sec) 
Heartbeat CPU 0 instructions: 83000000 cycles: 79812231 heartbeat IPC: 1.04881 cumulative IPC: 0.960965 (Simulation time: 1 hr 58 min 15 sec) 
Heartbeat CPU 0 instructions: 84000000 cycles: 80634498 heartbeat IPC: 1.21615 cumulative IPC: 0.963697 (Simulation time: 1 hr 59 min 49 sec) 
Heartbeat CPU 0 instructions: 85000001 cycles: 81840556 heartbeat IPC: 0.829148 cumulative IPC: 0.961617 (Simulation time: 2 hr 1 min 21 sec) 
Heartbeat CPU 0 instructions: 86000002 cycles: 82739732 heartbeat IPC: 1.11213 cumulative IPC: 0.963332 (Simulation time: 2 hr 2 min 48 sec) 
Heartbeat CPU 0 instructions: 87000000 cycles: 83559832 heartbeat IPC: 1.21936 cumulative IPC: 0.965966 (Simulation time: 2 hr 4 min 17 sec) 
Heartbeat CPU 0 instructions: 88000000 cycles: 84763439 heartbeat IPC: 0.830836 cumulative IPC: 0.963956 (Simulation time: 2 hr 5 min 48 sec) 
Heartbeat CPU 0 instructions: 89000000 cycles: 85660566 heartbeat IPC: 1.11467 cumulative IPC: 0.965609 (Simulation time: 2 hr 7 min 17 sec) 
Heartbeat CPU 0 instructions: 90000000 cycles: 86481481 heartbeat IPC: 1.21815 cumulative IPC: 0.968118 (Simulation time: 2 hr 8 min 43 sec) 
Heartbeat CPU 0 instructions: 91000001 cycles: 87676426 heartbeat IPC: 0.836859 cumulative IPC: 0.966247 (Simulation time: 2 hr 10 min 16 sec) 
Heartbeat CPU 0 instructions: 92000000 cycles: 88577298 heartbeat IPC: 1.11003 cumulative IPC: 0.967776 (Simulation time: 2 hr 11 min 54 sec) 
Heartbeat CPU 0 instructions: 93000002 cycles: 89394281 heartbeat IPC: 1.22402 cumulative IPC: 0.970223 (Simulation time: 2 hr 13 min 21 sec) 
Heartbeat CPU 0 instructions: 94000000 cycles: 90615879 heartbeat IPC: 0.818598 cumulative IPC: 0.968088 (Simulation time: 2 hr 14 min 52 sec) 
Heartbeat CPU 0 instructions: 95000003 cycles: 91518086 heartbeat IPC: 1.1084 cumulative IPC: 0.969532 (Simulation time: 2 hr 16 min 19 sec) 
Heartbeat CPU 0 instructions: 96000000 cycles: 92379663 heartbeat IPC: 1.16066 cumulative IPC: 0.971392 (Simulation time: 2 hr 17 min 48 sec) 
Heartbeat CPU 0 instructions: 97000002 cycles: 93673299 heartbeat IPC: 0.773017 cumulative IPC: 0.968535 (Simulation time: 2 hr 19 min 19 sec) 
Heartbeat CPU 0 instructions: 98000003 cycles: 94983209 heartbeat IPC: 0.763412 cumulative IPC: 0.965587 (Simulation time: 2 hr 20 min 45 sec) 
Heartbeat CPU 0 instructions: 99000000 cycles: 95943908 heartbeat IPC: 1.04091 cumulative IPC: 0.966372 (Simulation time: 2 hr 22 min 12 sec) 
Heartbeat CPU 0 instructions: 100000000 cycles: 96767553 heartbeat IPC: 1.21412 cumulative IPC: 0.968568 (Simulation time: 2 hr 23 min 31 sec) 
Heartbeat CPU 0 instructions: 101000003 cycles: 98763714 heartbeat IPC: 0.500963 cumulative IPC: 0.958734 (Simulation time: 2 hr 25 min 6 sec) 
Heartbeat CPU 0 instructions: 102000002 cycles: 99906748 heartbeat IPC: 0.874864 cumulative IPC: 0.957736 (Simulation time: 2 hr 26 min 24 sec) 
Heartbeat CPU 0 instructions: 103000002 cycles: 100793474 heartbeat IPC: 1.12774 cumulative IPC: 0.959291 (Simulation time: 2 hr 27 min 32 sec) 
Heartbeat CPU 0 instructions: 104000000 cycles: 102501844 heartbeat IPC: 0.585352 cumulative IPC: 0.952816 (Simulation time: 2 hr 28 min 51 sec) 
Heartbeat CPU 0 instructions: 105000002 cycles: 103781929 heartbeat IPC: 0.7812 cumulative IPC: 0.950618 (Simulation time: 2 hr 30 min 3 sec) 
Heartbeat CPU 0 instructions: 106000000 cycles: 104745011 heartbeat IPC: 1.03833 cumulative IPC: 0.951455 (Simulation time: 2 hr 31 min 8 sec) 
Heartbeat CPU 0 instructions: 107000001 cycles: 106140907 heartbeat IPC: 0.716386 cumulative IPC: 0.948247 (Simulation time: 2 hr 32 min 19 sec) 
Heartbeat CPU 0 instructions: 108000000 cycles: 107632088 heartbeat IPC: 0.670609 cumulative IPC: 0.944258 (Simulation time: 2 hr 33 min 25 sec) 
Heartbeat CPU 0 instructions: 109000003 cycles: 108675996 heartbeat IPC: 0.957942 cumulative IPC: 0.944394 (Simulation time: 2 hr 34 min 30 sec) 
Heartbeat CPU 0 instructions: 110000000 cycles: 109657458 heartbeat IPC: 1.01889 cumulative IPC: 0.945085 (Simulation time: 2 hr 35 min 32 sec) 
Finished CPU 0 instructions: 100000002 cycles: 105810544 cummulative IPC: 0.945085 (Simulation time: 2 hr 35 min 32 sec) 

ChampSim completed all CPUs

Region of Interest Statistics

CPU 0 cummulative IPC: 0.945085 instructions: 100000002 cycles: 105810544
LLC TOTAL     ACCESS:    1399112  HIT:    1098555  MISS:     300557
LLC LOAD      ACCESS:    1148255  HIT:     855532  MISS:     292723
LLC RFO       ACCESS:     122689  HIT:     116225  MISS:       6464
LLC PREFETCH  ACCESS:          0  HIT:          0  MISS:          0
LLC WRITEBACK ACCESS:     128168  HIT:     126798  MISS:       1370
