
*** ChampSim Multicore Out-of-Order Simulator ***

Warmup Instructions: 10000000
Simulation Instructions: 100000000
Configuration: 2
Number of CPUs: 1
LLC sets: 2048
LLC ways: 16
Off-chip DRAM Channels: 1 Width: 64-bit Data Rate: 1600 MT/s

CPU 0 runs /datasets/cs240c-wi22-a00-public/data/Assignment2-gz/milc_360B.trace.gz
CPU 0 L1D next line prefetcher
CPU 0 L2C IP-based stride prefetcher
config 2, num_core 1, llc_sets 2048
Heartbeat CPU 0 instructions: 1000001 cycles: 549511 heartbeat IPC: 1.8198 cumulative IPC: 1.8198 (Simulation time: 0 hr 0 min 38 sec) 
Heartbeat CPU 0 instructions: 2000003 cycles: 1099026 heartbeat IPC: 1.81979 cumulative IPC: 1.8198 (Simulation time: 0 hr 1 min 9 sec) 
Heartbeat CPU 0 instructions: 3000001 cycles: 1648486 heartbeat IPC: 1.81997 cumulative IPC: 1.81985 (Simulation time: 0 hr 1 min 40 sec) 
Heartbeat CPU 0 instructions: 4000000 cycles: 2197959 heartbeat IPC: 1.81992 cumulative IPC: 1.81987 (Simulation time: 0 hr 2 min 15 sec) 
Heartbeat CPU 0 instructions: 5000002 cycles: 2747468 heartbeat IPC: 1.81981 cumulative IPC: 1.81986 (Simulation time: 0 hr 2 min 46 sec) 
Heartbeat CPU 0 instructions: 6000001 cycles: 3296983 heartbeat IPC: 1.81978 cumulative IPC: 1.81985 (Simulation time: 0 hr 3 min 17 sec) 
Heartbeat CPU 0 instructions: 7000000 cycles: 3846462 heartbeat IPC: 1.8199 cumulative IPC: 1.81985 (Simulation time: 0 hr 3 min 50 sec) 
Heartbeat CPU 0 instructions: 8000000 cycles: 4395923 heartbeat IPC: 1.81997 cumulative IPC: 1.81987 (Simulation time: 0 hr 4 min 20 sec) 
Heartbeat CPU 0 instructions: 9000001 cycles: 4945436 heartbeat IPC: 1.8198 cumulative IPC: 1.81986 (Simulation time: 0 hr 4 min 50 sec) 
Heartbeat CPU 0 instructions: 10000001 cycles: 5494911 heartbeat IPC: 1.81992 cumulative IPC: 1.81987 (Simulation time: 0 hr 5 min 24 sec) 

Warmup complete CPU 0 instructions: 10000001 cycles: 5494911 (Simulation time: 0 hr 5 min 24 sec) 

Heartbeat CPU 0 instructions: 11000001 cycles: 7186169 heartbeat IPC: 0.591276 cumulative IPC: 0.591276 (Simulation time: 0 hr 5 min 58 sec) 
Heartbeat CPU 0 instructions: 12000000 cycles: 8877853 heartbeat IPC: 0.591126 cumulative IPC: 0.591201 (Simulation time: 0 hr 6 min 32 sec) 
Heartbeat CPU 0 instructions: 13000001 cycles: 10566687 heartbeat IPC: 0.592125 cumulative IPC: 0.591509 (Simulation time: 0 hr 7 min 6 sec) 
Heartbeat CPU 0 instructions: 14000001 cycles: 12254196 heartbeat IPC: 0.592589 cumulative IPC: 0.591779 (Simulation time: 0 hr 7 min 41 sec) 
Heartbeat CPU 0 instructions: 15000003 cycles: 13940160 heartbeat IPC: 0.593134 cumulative IPC: 0.592049 (Simulation time: 0 hr 8 min 17 sec) 
Heartbeat CPU 0 instructions: 16000000 cycles: 15636415 heartbeat IPC: 0.589532 cumulative IPC: 0.591628 (Simulation time: 0 hr 8 min 51 sec) 
Heartbeat CPU 0 instructions: 17000003 cycles: 17323931 heartbeat IPC: 0.592589 cumulative IPC: 0.591765 (Simulation time: 0 hr 9 min 24 sec) 
Heartbeat CPU 0 instructions: 18000002 cycles: 19020144 heartbeat IPC: 0.589548 cumulative IPC: 0.591487 (Simulation time: 0 hr 10 min 5 sec) 
Heartbeat CPU 0 instructions: 19000000 cycles: 20713334 heartbeat IPC: 0.5906 cumulative IPC: 0.591388 (Simulation time: 0 hr 10 min 44 sec) 
Heartbeat CPU 0 instructions: 20000000 cycles: 22401948 heartbeat IPC: 0.592202 cumulative IPC: 0.59147 (Simulation time: 0 hr 11 min 18 sec) 
Heartbeat CPU 0 instructions: 21000002 cycles: 24079369 heartbeat IPC: 0.596154 cumulative IPC: 0.591892 (Simulation time: 0 hr 11 min 53 sec) 
Heartbeat CPU 0 instructions: 22000003 cycles: 25758046 heartbeat IPC: 0.595708 cumulative IPC: 0.592209 (Simulation time: 0 hr 12 min 27 sec) 
Heartbeat CPU 0 instructions: 23000001 cycles: 27441116 heartbeat IPC: 0.594151 cumulative IPC: 0.592358 (Simulation time: 0 hr 13 min 0 sec) 
Heartbeat CPU 0 instructions: 24000000 cycles: 29122476 heartbeat IPC: 0.594756 cumulative IPC: 0.592528 (Simulation time: 0 hr 13 min 36 sec) 
Heartbeat CPU 0 instructions: 25000003 cycles: 30809072 heartbeat IPC: 0.592912 cumulative IPC: 0.592554 (Simulation time: 0 hr 14 min 11 sec) 
Heartbeat CPU 0 instructions: 26000001 cycles: 32493910 heartbeat IPC: 0.593528 cumulative IPC: 0.592615 (Simulation time: 0 hr 14 min 50 sec) 
Heartbeat CPU 0 instructions: 27000001 cycles: 34178480 heartbeat IPC: 0.593623 cumulative IPC: 0.592674 (Simulation time: 0 hr 15 min 25 sec) 
Heartbeat CPU 0 instructions: 28000000 cycles: 35857204 heartbeat IPC: 0.59569 cumulative IPC: 0.592841 (Simulation time: 0 hr 16 min 0 sec) 
Heartbeat CPU 0 instructions: 29000001 cycles: 37542511 heartbeat IPC: 0.593364 cumulative IPC: 0.592868 (Simulation time: 0 hr 16 min 35 sec) 
Heartbeat CPU 0 instructions: 30000000 cycles: 39229120 heartbeat IPC: 0.592905 cumulative IPC: 0.59287 (Simulation time: 0 hr 17 min 10 sec) 
Heartbeat CPU 0 instructions: 31000003 cycles: 40910996 heartbeat IPC: 0.594576 cumulative IPC: 0.592951 (Simulation time: 0 hr 17 min 45 sec) 
Heartbeat CPU 0 instructions: 32000000 cycles: 42590178 heartbeat IPC: 0.595526 cumulative IPC: 0.593068 (Simulation time: 0 hr 18 min 20 sec) 
Heartbeat CPU 0 instructions: 33000000 cycles: 44270857 heartbeat IPC: 0.594998 cumulative IPC: 0.593151 (Simulation time: 0 hr 18 min 54 sec) 
Heartbeat CPU 0 instructions: 34000003 cycles: 45947729 heartbeat IPC: 0.59635 cumulative IPC: 0.593284 (Simulation time: 0 hr 19 min 28 sec) 
Heartbeat CPU 0 instructions: 35000001 cycles: 47631093 heartbeat IPC: 0.594047 cumulative IPC: 0.593314 (Simulation time: 0 hr 20 min 4 sec) 
Heartbeat CPU 0 instructions: 36000000 cycles: 49313761 heartbeat IPC: 0.594294 cumulative IPC: 0.593352 (Simulation time: 0 hr 20 min 37 sec) 
Heartbeat CPU 0 instructions: 37000000 cycles: 50994273 heartbeat IPC: 0.595057 cumulative IPC: 0.593415 (Simulation time: 0 hr 21 min 10 sec) 
Heartbeat CPU 0 instructions: 38000001 cycles: 52671942 heartbeat IPC: 0.596066 cumulative IPC: 0.593509 (Simulation time: 0 hr 21 min 45 sec) 
Heartbeat CPU 0 instructions: 39000000 cycles: 54354848 heartbeat IPC: 0.59421 cumulative IPC: 0.593533 (Simulation time: 0 hr 22 min 17 sec) 
Heartbeat CPU 0 instructions: 40000000 cycles: 56041170 heartbeat IPC: 0.593007 cumulative IPC: 0.593516 (Simulation time: 0 hr 22 min 55 sec) 
Heartbeat CPU 0 instructions: 41000001 cycles: 57723066 heartbeat IPC: 0.594568 cumulative IPC: 0.59355 (Simulation time: 0 hr 23 min 31 sec) 
Heartbeat CPU 0 instructions: 42000001 cycles: 59403202 heartbeat IPC: 0.59519 cumulative IPC: 0.593601 (Simulation time: 0 hr 24 min 7 sec) 
Heartbeat CPU 0 instructions: 43000000 cycles: 61091214 heartbeat IPC: 0.592412 cumulative IPC: 0.593565 (Simulation time: 0 hr 24 min 40 sec) 
Heartbeat CPU 0 instructions: 44000000 cycles: 63074902 heartbeat IPC: 0.504112 cumulative IPC: 0.590483 (Simulation time: 0 hr 25 min 18 sec) 
Heartbeat CPU 0 instructions: 45000002 cycles: 65248557 heartbeat IPC: 0.460056 cumulative IPC: 0.585738 (Simulation time: 0 hr 25 min 59 sec) 
Heartbeat CPU 0 instructions: 46000001 cycles: 67367967 heartbeat IPC: 0.471829 cumulative IPC: 0.581836 (Simulation time: 0 hr 26 min 38 sec) 
Heartbeat CPU 0 instructions: 47000002 cycles: 69514984 heartbeat IPC: 0.465763 cumulative IPC: 0.577944 (Simulation time: 0 hr 27 min 21 sec) 
Heartbeat CPU 0 instructions: 48000000 cycles: 71623310 heartbeat IPC: 0.474309 cumulative IPC: 0.57464 (Simulation time: 0 hr 27 min 59 sec) 
Heartbeat CPU 0 instructions: 49000003 cycles: 73708758 heartbeat IPC: 0.479515 cumulative IPC: 0.571731 (Simulation time: 0 hr 28 min 39 sec) 
Heartbeat CPU 0 instructions: 50000002 cycles: 75597765 heartbeat IPC: 0.529378 cumulative IPC: 0.57059 (Simulation time: 0 hr 29 min 15 sec) 
Heartbeat CPU 0 instructions: 51000002 cycles: 76707509 heartbeat IPC: 0.901109 cumulative IPC: 0.575741 (Simulation time: 0 hr 29 min 44 sec) 
Heartbeat CPU 0 instructions: 52000000 cycles: 78547521 heartbeat IPC: 0.543474 cumulative IPC: 0.574928 (Simulation time: 0 hr 30 min 18 sec) 
Heartbeat CPU 0 instructions: 53000002 cycles: 80782897 heartbeat IPC: 0.447353 cumulative IPC: 0.57114 (Simulation time: 0 hr 30 min 54 sec) 
Heartbeat CPU 0 instructions: 54000003 cycles: 83017035 heartbeat IPC: 0.4476 cumulative IPC: 0.56758 (Simulation time: 0 hr 31 min 27 sec) 
Heartbeat CPU 0 instructions: 55000003 cycles: 85249049 heartbeat IPC: 0.448026 cumulative IPC: 0.564234 (Simulation time: 0 hr 32 min 0 sec) 
Heartbeat CPU 0 instructions: 56000000 cycles: 87478079 heartbeat IPC: 0.448624 cumulative IPC: 0.561091 (Simulation time: 0 hr 32 min 32 sec) 
Heartbeat CPU 0 instructions: 57000000 cycles: 89709101 heartbeat IPC: 0.448225 cumulative IPC: 0.558101 (Simulation time: 0 hr 33 min 6 sec) 
Heartbeat CPU 0 instructions: 58000000 cycles: 91937164 heartbeat IPC: 0.44882 cumulative IPC: 0.555284 (Simulation time: 0 hr 33 min 36 sec) 
Heartbeat CPU 0 instructions: 59000001 cycles: 94165104 heartbeat IPC: 0.448846 cumulative IPC: 0.55261 (Simulation time: 0 hr 34 min 12 sec) 
Heartbeat CPU 0 instructions: 60000000 cycles: 96393904 heartbeat IPC: 0.448671 cumulative IPC: 0.550061 (Simulation time: 0 hr 34 min 48 sec) 
Heartbeat CPU 0 instructions: 61000000 cycles: 98625380 heartbeat IPC: 0.448134 cumulative IPC: 0.547619 (Simulation time: 0 hr 35 min 20 sec) 
Heartbeat CPU 0 instructions: 62000003 cycles: 100854463 heartbeat IPC: 0.448616 cumulative IPC: 0.545305 (Simulation time: 0 hr 36 min 0 sec) 
Heartbeat CPU 0 instructions: 63000003 cycles: 103087610 heartbeat IPC: 0.447799 cumulative IPC: 0.543073 (Simulation time: 0 hr 36 min 45 sec) 
Heartbeat CPU 0 instructions: 64000000 cycles: 105320779 heartbeat IPC: 0.447793 cumulative IPC: 0.540942 (Simulation time: 0 hr 37 min 16 sec) 
Heartbeat CPU 0 instructions: 65000001 cycles: 107557252 heartbeat IPC: 0.447133 cumulative IPC: 0.538886 (Simulation time: 0 hr 37 min 50 sec) 
Heartbeat CPU 0 instructions: 66000001 cycles: 109784810 heartbeat IPC: 0.448922 cumulative IPC: 0.536965 (Simulation time: 0 hr 38 min 25 sec) 
Heartbeat CPU 0 instructions: 67000002 cycles: 112017281 heartbeat IPC: 0.447935 cumulative IPC: 0.535099 (Simulation time: 0 hr 38 min 57 sec) 
Heartbeat CPU 0 instructions: 68000000 cycles: 114249683 heartbeat IPC: 0.447947 cumulative IPC: 0.53331 (Simulation time: 0 hr 39 min 33 sec) 
Heartbeat CPU 0 instructions: 69000001 cycles: 116481043 heartbeat IPC: 0.448158 cumulative IPC: 0.531598 (Simulation time: 0 hr 40 min 9 sec) 
Heartbeat CPU 0 instructions: 70000000 cycles: 118711756 heartbeat IPC: 0.448287 cumulative IPC: 0.529956 (Simulation time: 0 hr 40 min 41 sec) 
Heartbeat CPU 0 instructions: 71000000 cycles: 120943316 heartbeat IPC: 0.448117 cumulative IPC: 0.528375 (Simulation time: 0 hr 41 min 15 sec) 
Heartbeat CPU 0 instructions: 72000000 cycles: 123171592 heartbeat IPC: 0.448777 cumulative IPC: 0.526867 (Simulation time: 0 hr 41 min 47 sec) 
Heartbeat CPU 0 instructions: 73000001 cycles: 125386497 heartbeat IPC: 0.451487 cumulative IPC: 0.525475 (Simulation time: 0 hr 42 min 21 sec) 
Heartbeat CPU 0 instructions: 74000002 cycles: 126969694 heartbeat IPC: 0.631634 cumulative IPC: 0.526858 (Simulation time: 0 hr 42 min 56 sec) 
Heartbeat CPU 0 instructions: 75000003 cycles: 128546061 heartbeat IPC: 0.634371 cumulative IPC: 0.528236 (Simulation time: 0 hr 43 min 34 sec) 
Heartbeat CPU 0 instructions: 76000000 cycles: 130122123 heartbeat IPC: 0.634491 cumulative IPC: 0.529579 (Simulation time: 0 hr 44 min 7 sec) 
Heartbeat CPU 0 instructions: 77000000 cycles: 131691443 heartbeat IPC: 0.637219 cumulative IPC: 0.530918 (Simulation time: 0 hr 44 min 42 sec) 
Heartbeat CPU 0 instructions: 78000000 cycles: 133268473 heartbeat IPC: 0.634103 cumulative IPC: 0.532191 (Simulation time: 0 hr 45 min 16 sec) 
Heartbeat CPU 0 instructions: 79000000 cycles: 134845457 heartbeat IPC: 0.634122 cumulative IPC: 0.533434 (Simulation time: 0 hr 45 min 48 sec) 
Heartbeat CPU 0 instructions: 80000000 cycles: 136420492 heartbeat IPC: 0.634907 cumulative IPC: 0.534655 (Simulation time: 0 hr 46 min 20 sec) 
Heartbeat CPU 0 instructions: 81000003 cycles: 137996001 heartbeat IPC: 0.634717 cumulative IPC: 0.535845 (Simulation time: 0 hr 46 min 53 sec) 
Heartbeat CPU 0 instructions: 82000003 cycles: 139567407 heartbeat IPC: 0.636373 cumulative IPC: 0.537023 (Simulation time: 0 hr 47 min 27 sec) 
Heartbeat CPU 0 instructions: 83000002 cycles: 141138975 heartbeat IPC: 0.636307 cumulative IPC: 0.538173 (Simulation time: 0 hr 48 min 0 sec) 
Heartbeat CPU 0 instructions: 84000000 cycles: 142717198 heartbeat IPC: 0.633623 cumulative IPC: 0.539271 (Simulation time: 0 hr 48 min 35 sec) 
Heartbeat CPU 0 instructions: 85000000 cycles: 144291030 heartbeat IPC: 0.635392 cumulative IPC: 0.540361 (Simulation time: 0 hr 49 min 8 sec) 
Heartbeat CPU 0 instructions: 86000000 cycles: 145869716 heartbeat IPC: 0.633438 cumulative IPC: 0.541408 (Simulation time: 0 hr 49 min 38 sec) 
Heartbeat CPU 0 instructions: 87000000 cycles: 147440194 heartbeat IPC: 0.636749 cumulative IPC: 0.542463 (Simulation time: 0 hr 50 min 8 sec) 
Heartbeat CPU 0 instructions: 88000000 cycles: 149016733 heartbeat IPC: 0.634301 cumulative IPC: 0.543471 (Simulation time: 0 hr 50 min 42 sec) 
Heartbeat CPU 0 instructions: 89000002 cycles: 150593018 heartbeat IPC: 0.634404 cumulative IPC: 0.544459 (Simulation time: 0 hr 51 min 16 sec) 
Heartbeat CPU 0 instructions: 90000002 cycles: 152159313 heartbeat IPC: 0.638449 cumulative IPC: 0.545463 (Simulation time: 0 hr 51 min 52 sec) 
Heartbeat CPU 0 instructions: 91000003 cycles: 153733292 heartbeat IPC: 0.635333 cumulative IPC: 0.546417 (Simulation time: 0 hr 52 min 27 sec) 
Heartbeat CPU 0 instructions: 92000000 cycles: 155309762 heartbeat IPC: 0.634327 cumulative IPC: 0.547342 (Simulation time: 0 hr 52 min 59 sec) 
Heartbeat CPU 0 instructions: 93000000 cycles: 156880551 heartbeat IPC: 0.636623 cumulative IPC: 0.548269 (Simulation time: 0 hr 53 min 33 sec) 
Heartbeat CPU 0 instructions: 94000000 cycles: 158454264 heartbeat IPC: 0.63544 cumulative IPC: 0.549165 (Simulation time: 0 hr 54 min 4 sec) 
Heartbeat CPU 0 instructions: 95000000 cycles: 160028279 heartbeat IPC: 0.635318 cumulative IPC: 0.550043 (Simulation time: 0 hr 54 min 35 sec) 
Heartbeat CPU 0 instructions: 96000000 cycles: 161604962 heartbeat IPC: 0.634243 cumulative IPC: 0.550893 (Simulation time: 0 hr 55 min 4 sec) 
Heartbeat CPU 0 instructions: 97000002 cycles: 163171538 heartbeat IPC: 0.638336 cumulative IPC: 0.551762 (Simulation time: 0 hr 55 min 32 sec) 
Heartbeat CPU 0 instructions: 98000003 cycles: 164734594 heartbeat IPC: 0.639773 cumulative IPC: 0.552626 (Simulation time: 0 hr 56 min 3 sec) 
Heartbeat CPU 0 instructions: 99000000 cycles: 166297064 heartbeat IPC: 0.64001 cumulative IPC: 0.553475 (Simulation time: 0 hr 56 min 32 sec) 
Heartbeat CPU 0 instructions: 100000000 cycles: 167860442 heartbeat IPC: 0.639641 cumulative IPC: 0.554305 (Simulation time: 0 hr 57 min 2 sec) 
Heartbeat CPU 0 instructions: 101000002 cycles: 169426796 heartbeat IPC: 0.638427 cumulative IPC: 0.555109 (Simulation time: 0 hr 57 min 30 sec) 
Heartbeat CPU 0 instructions: 102000000 cycles: 170990098 heartbeat IPC: 0.63967 cumulative IPC: 0.555907 (Simulation time: 0 hr 57 min 57 sec) 
Heartbeat CPU 0 instructions: 103000002 cycles: 172555754 heartbeat IPC: 0.638711 cumulative IPC: 0.556683 (Simulation time: 0 hr 58 min 21 sec) 
Heartbeat CPU 0 instructions: 104000000 cycles: 174117569 heartbeat IPC: 0.640279 cumulative IPC: 0.557458 (Simulation time: 0 hr 58 min 46 sec) 
Heartbeat CPU 0 instructions: 105000003 cycles: 175683480 heartbeat IPC: 0.638608 cumulative IPC: 0.558204 (Simulation time: 0 hr 59 min 9 sec) 
Heartbeat CPU 0 instructions: 106000002 cycles: 177252614 heartbeat IPC: 0.637294 cumulative IPC: 0.558927 (Simulation time: 0 hr 59 min 33 sec) 
Heartbeat CPU 0 instructions: 107000000 cycles: 178817749 heartbeat IPC: 0.638921 cumulative IPC: 0.559649 (Simulation time: 0 hr 59 min 54 sec) 
Heartbeat CPU 0 instructions: 108000000 cycles: 180379813 heartbeat IPC: 0.640179 cumulative IPC: 0.560369 (Simulation time: 1 hr 0 min 16 sec) 
Heartbeat CPU 0 instructions: 109000002 cycles: 181943979 heartbeat IPC: 0.63932 cumulative IPC: 0.561068 (Simulation time: 1 hr 0 min 38 sec) 
Heartbeat CPU 0 instructions: 110000000 cycles: 183508281 heartbeat IPC: 0.639261 cumulative IPC: 0.561756 (Simulation time: 1 hr 0 min 58 sec) 
Finished CPU 0 instructions: 100000003 cycles: 178013371 cummulative IPC: 0.561756 (Simulation time: 1 hr 0 min 58 sec) 

ChampSim completed all CPUs

Region of Interest Statistics

CPU 0 cummulative IPC: 0.561756 instructions: 100000003 cycles: 178013371
LLC TOTAL     ACCESS:    3481384  HIT:       2401  MISS:    3478983
LLC LOAD      ACCESS:    1002142  HIT:        100  MISS:    1002042
LLC RFO       ACCESS:     140009  HIT:        561  MISS:     139448
LLC PREFETCH  ACCESS:    1596562  HIT:       1084  MISS:    1595478
LLC WRITEBACK ACCESS:     742671  HIT:        656  MISS:     742015
