
*** ChampSim Multicore Out-of-Order Simulator ***

Warmup Instructions: 10000000
Simulation Instructions: 100000000
Configuration: 2
Number of CPUs: 1
LLC sets: 2048
LLC ways: 16
Off-chip DRAM Channels: 1 Width: 64-bit Data Rate: 1600 MT/s

CPU 0 runs /datasets/cs240c-wi22-a00-public/data/Assignment2-gz/lbm_564B.trace.gz
CPU 0 L1D next line prefetcher
CPU 0 L2C IP-based stride prefetcher
config 2, num_core 1, llc_sets 2048
Heartbeat CPU 0 instructions: 1000000 cycles: 390168 heartbeat IPC: 2.563 cumulative IPC: 2.563 (Simulation time: 0 hr 0 min 30 sec) 
Heartbeat CPU 0 instructions: 2000003 cycles: 785204 heartbeat IPC: 2.53142 cumulative IPC: 2.54711 (Simulation time: 0 hr 0 min 57 sec) 
Heartbeat CPU 0 instructions: 3000002 cycles: 1175399 heartbeat IPC: 2.56282 cumulative IPC: 2.55233 (Simulation time: 0 hr 1 min 23 sec) 
Heartbeat CPU 0 instructions: 4000000 cycles: 1565585 heartbeat IPC: 2.56288 cumulative IPC: 2.55496 (Simulation time: 0 hr 1 min 50 sec) 
Heartbeat CPU 0 instructions: 5000000 cycles: 1960704 heartbeat IPC: 2.53088 cumulative IPC: 2.5501 (Simulation time: 0 hr 2 min 18 sec) 
Heartbeat CPU 0 instructions: 6000002 cycles: 2350860 heartbeat IPC: 2.56308 cumulative IPC: 2.55226 (Simulation time: 0 hr 2 min 47 sec) 
Heartbeat CPU 0 instructions: 7000001 cycles: 2741123 heartbeat IPC: 2.56237 cumulative IPC: 2.5537 (Simulation time: 0 hr 3 min 15 sec) 
Heartbeat CPU 0 instructions: 8000000 cycles: 3136138 heartbeat IPC: 2.53155 cumulative IPC: 2.55091 (Simulation time: 0 hr 3 min 48 sec) 
Heartbeat CPU 0 instructions: 9000000 cycles: 3526412 heartbeat IPC: 2.5623 cumulative IPC: 2.55217 (Simulation time: 0 hr 4 min 15 sec) 
Heartbeat CPU 0 instructions: 10000002 cycles: 3916586 heartbeat IPC: 2.56296 cumulative IPC: 2.55324 (Simulation time: 0 hr 4 min 40 sec) 

Warmup complete CPU 0 instructions: 10000002 cycles: 3916586 (Simulation time: 0 hr 4 min 40 sec) 

Heartbeat CPU 0 instructions: 11000000 cycles: 5307732 heartbeat IPC: 0.71883 cumulative IPC: 0.71883 (Simulation time: 0 hr 5 min 10 sec) 
Heartbeat CPU 0 instructions: 12000000 cycles: 6692367 heartbeat IPC: 0.722212 cumulative IPC: 0.720517 (Simulation time: 0 hr 5 min 41 sec) 
Heartbeat CPU 0 instructions: 13000001 cycles: 7996498 heartbeat IPC: 0.766795 cumulative IPC: 0.73531 (Simulation time: 0 hr 6 min 11 sec) 
Heartbeat CPU 0 instructions: 14000001 cycles: 9344130 heartbeat IPC: 0.742042 cumulative IPC: 0.736981 (Simulation time: 0 hr 6 min 43 sec) 
Heartbeat CPU 0 instructions: 15000000 cycles: 10791683 heartbeat IPC: 0.69082 cumulative IPC: 0.727262 (Simulation time: 0 hr 7 min 21 sec) 
Heartbeat CPU 0 instructions: 16000000 cycles: 12159864 heartbeat IPC: 0.730897 cumulative IPC: 0.727866 (Simulation time: 0 hr 7 min 53 sec) 
Heartbeat CPU 0 instructions: 17000000 cycles: 13490368 heartbeat IPC: 0.751595 cumulative IPC: 0.731163 (Simulation time: 0 hr 8 min 27 sec) 
Heartbeat CPU 0 instructions: 18000000 cycles: 14941172 heartbeat IPC: 0.689273 cumulative IPC: 0.725651 (Simulation time: 0 hr 9 min 0 sec) 
Heartbeat CPU 0 instructions: 19000003 cycles: 16324148 heartbeat IPC: 0.723081 cumulative IPC: 0.725364 (Simulation time: 0 hr 9 min 31 sec) 
Heartbeat CPU 0 instructions: 20000000 cycles: 17711708 heartbeat IPC: 0.720687 cumulative IPC: 0.724894 (Simulation time: 0 hr 10 min 0 sec) 
Heartbeat CPU 0 instructions: 21000003 cycles: 19035765 heartbeat IPC: 0.755257 cumulative IPC: 0.727553 (Simulation time: 0 hr 10 min 32 sec) 
Heartbeat CPU 0 instructions: 22000003 cycles: 21013784 heartbeat IPC: 0.505556 cumulative IPC: 0.701869 (Simulation time: 0 hr 11 min 10 sec) 
Heartbeat CPU 0 instructions: 23000001 cycles: 23089513 heartbeat IPC: 0.481757 cumulative IPC: 0.678039 (Simulation time: 0 hr 11 min 51 sec) 
Heartbeat CPU 0 instructions: 24000000 cycles: 29567885 heartbeat IPC: 0.15436 cumulative IPC: 0.545781 (Simulation time: 0 hr 13 min 8 sec) 
Heartbeat CPU 0 instructions: 25000003 cycles: 32386724 heartbeat IPC: 0.354757 cumulative IPC: 0.526868 (Simulation time: 0 hr 13 min 59 sec) 
Heartbeat CPU 0 instructions: 26000002 cycles: 34710945 heartbeat IPC: 0.430251 cumulative IPC: 0.519576 (Simulation time: 0 hr 14 min 43 sec) 
Heartbeat CPU 0 instructions: 27000001 cycles: 36135911 heartbeat IPC: 0.70177 cumulative IPC: 0.527634 (Simulation time: 0 hr 15 min 18 sec) 
Heartbeat CPU 0 instructions: 28000000 cycles: 37576502 heartbeat IPC: 0.694159 cumulative IPC: 0.534761 (Simulation time: 0 hr 15 min 52 sec) 
Heartbeat CPU 0 instructions: 29000003 cycles: 39042561 heartbeat IPC: 0.682103 cumulative IPC: 0.54091 (Simulation time: 0 hr 16 min 24 sec) 
Heartbeat CPU 0 instructions: 30000000 cycles: 40466560 heartbeat IPC: 0.702246 cumulative IPC: 0.547196 (Simulation time: 0 hr 16 min 58 sec) 
Heartbeat CPU 0 instructions: 31000000 cycles: 41825534 heartbeat IPC: 0.735849 cumulative IPC: 0.553959 (Simulation time: 0 hr 17 min 29 sec) 
Heartbeat CPU 0 instructions: 32000000 cycles: 43210583 heartbeat IPC: 0.721996 cumulative IPC: 0.559882 (Simulation time: 0 hr 18 min 1 sec) 
Heartbeat CPU 0 instructions: 33000001 cycles: 44711111 heartbeat IPC: 0.666433 cumulative IPC: 0.563801 (Simulation time: 0 hr 18 min 33 sec) 
Heartbeat CPU 0 instructions: 34000001 cycles: 46027807 heartbeat IPC: 0.759477 cumulative IPC: 0.569919 (Simulation time: 0 hr 19 min 5 sec) 
Heartbeat CPU 0 instructions: 35000002 cycles: 47357787 heartbeat IPC: 0.751892 cumulative IPC: 0.575491 (Simulation time: 0 hr 19 min 35 sec) 
Heartbeat CPU 0 instructions: 36000000 cycles: 48705796 heartbeat IPC: 0.741833 cumulative IPC: 0.580497 (Simulation time: 0 hr 20 min 9 sec) 
Heartbeat CPU 0 instructions: 37000000 cycles: 50201596 heartbeat IPC: 0.668539 cumulative IPC: 0.583342 (Simulation time: 0 hr 20 min 43 sec) 
Heartbeat CPU 0 instructions: 38000003 cycles: 51546918 heartbeat IPC: 0.743319 cumulative IPC: 0.587861 (Simulation time: 0 hr 21 min 13 sec) 
Heartbeat CPU 0 instructions: 39000002 cycles: 52900001 heartbeat IPC: 0.739052 cumulative IPC: 0.592037 (Simulation time: 0 hr 21 min 45 sec) 
Heartbeat CPU 0 instructions: 40000000 cycles: 54339022 heartbeat IPC: 0.694915 cumulative IPC: 0.594973 (Simulation time: 0 hr 22 min 22 sec) 
Heartbeat CPU 0 instructions: 41000000 cycles: 55727362 heartbeat IPC: 0.720285 cumulative IPC: 0.598331 (Simulation time: 0 hr 22 min 55 sec) 
Heartbeat CPU 0 instructions: 42000002 cycles: 57053066 heartbeat IPC: 0.754318 cumulative IPC: 0.602223 (Simulation time: 0 hr 23 min 28 sec) 
Heartbeat CPU 0 instructions: 43000001 cycles: 58427343 heartbeat IPC: 0.727655 cumulative IPC: 0.605385 (Simulation time: 0 hr 23 min 59 sec) 
Heartbeat CPU 0 instructions: 44000000 cycles: 59812016 heartbeat IPC: 0.722191 cumulative IPC: 0.608279 (Simulation time: 0 hr 24 min 29 sec) 
Heartbeat CPU 0 instructions: 45000001 cycles: 61179468 heartbeat IPC: 0.731288 cumulative IPC: 0.611216 (Simulation time: 0 hr 25 min 0 sec) 
Heartbeat CPU 0 instructions: 46000002 cycles: 62507037 heartbeat IPC: 0.753257 cumulative IPC: 0.614435 (Simulation time: 0 hr 25 min 31 sec) 
Heartbeat CPU 0 instructions: 47000001 cycles: 63926100 heartbeat IPC: 0.70469 cumulative IPC: 0.616569 (Simulation time: 0 hr 26 min 12 sec) 
Heartbeat CPU 0 instructions: 48000000 cycles: 65309487 heartbeat IPC: 0.722863 cumulative IPC: 0.618964 (Simulation time: 0 hr 26 min 49 sec) 
Heartbeat CPU 0 instructions: 49000001 cycles: 66699504 heartbeat IPC: 0.719416 cumulative IPC: 0.621188 (Simulation time: 0 hr 27 min 22 sec) 
Heartbeat CPU 0 instructions: 50000001 cycles: 68149387 heartbeat IPC: 0.689711 cumulative IPC: 0.622735 (Simulation time: 0 hr 28 min 0 sec) 
Heartbeat CPU 0 instructions: 51000002 cycles: 69513534 heartbeat IPC: 0.73306 cumulative IPC: 0.625029 (Simulation time: 0 hr 28 min 31 sec) 
Heartbeat CPU 0 instructions: 52000000 cycles: 70917065 heartbeat IPC: 0.712487 cumulative IPC: 0.626861 (Simulation time: 0 hr 29 min 2 sec) 
Heartbeat CPU 0 instructions: 53000001 cycles: 72288022 heartbeat IPC: 0.729418 cumulative IPC: 0.628918 (Simulation time: 0 hr 29 min 32 sec) 
Heartbeat CPU 0 instructions: 54000001 cycles: 73694324 heartbeat IPC: 0.711085 cumulative IPC: 0.630574 (Simulation time: 0 hr 30 min 8 sec) 
Heartbeat CPU 0 instructions: 55000003 cycles: 75062770 heartbeat IPC: 0.730757 cumulative IPC: 0.632501 (Simulation time: 0 hr 30 min 43 sec) 
Heartbeat CPU 0 instructions: 56000000 cycles: 76453979 heartbeat IPC: 0.718797 cumulative IPC: 0.634156 (Simulation time: 0 hr 31 min 13 sec) 
Heartbeat CPU 0 instructions: 57000001 cycles: 77844090 heartbeat IPC: 0.719368 cumulative IPC: 0.635758 (Simulation time: 0 hr 31 min 45 sec) 
Heartbeat CPU 0 instructions: 58000002 cycles: 79259323 heartbeat IPC: 0.706598 cumulative IPC: 0.637089 (Simulation time: 0 hr 32 min 18 sec) 
Heartbeat CPU 0 instructions: 59000001 cycles: 80628321 heartbeat IPC: 0.730461 cumulative IPC: 0.638755 (Simulation time: 0 hr 32 min 50 sec) 
Heartbeat CPU 0 instructions: 60000000 cycles: 82044958 heartbeat IPC: 0.705896 cumulative IPC: 0.639972 (Simulation time: 0 hr 33 min 22 sec) 
Heartbeat CPU 0 instructions: 61000003 cycles: 83478612 heartbeat IPC: 0.69752 cumulative IPC: 0.641009 (Simulation time: 0 hr 33 min 52 sec) 
Heartbeat CPU 0 instructions: 62000003 cycles: 84833882 heartbeat IPC: 0.73786 cumulative IPC: 0.642631 (Simulation time: 0 hr 34 min 23 sec) 
Heartbeat CPU 0 instructions: 63000000 cycles: 86256542 heartbeat IPC: 0.702907 cumulative IPC: 0.643673 (Simulation time: 0 hr 34 min 53 sec) 
Heartbeat CPU 0 instructions: 64000000 cycles: 87692944 heartbeat IPC: 0.696184 cumulative IPC: 0.644573 (Simulation time: 0 hr 35 min 25 sec) 
Heartbeat CPU 0 instructions: 65000003 cycles: 89087156 heartbeat IPC: 0.717253 cumulative IPC: 0.645763 (Simulation time: 0 hr 35 min 59 sec) 
Heartbeat CPU 0 instructions: 66000001 cycles: 90452636 heartbeat IPC: 0.732342 cumulative IPC: 0.647129 (Simulation time: 0 hr 36 min 31 sec) 
Heartbeat CPU 0 instructions: 67000001 cycles: 91908216 heartbeat IPC: 0.687011 cumulative IPC: 0.647789 (Simulation time: 0 hr 37 min 3 sec) 
Heartbeat CPU 0 instructions: 68000000 cycles: 93392611 heartbeat IPC: 0.673674 cumulative IPC: 0.648218 (Simulation time: 0 hr 37 min 40 sec) 
Heartbeat CPU 0 instructions: 69000003 cycles: 94745435 heartbeat IPC: 0.739197 cumulative IPC: 0.649573 (Simulation time: 0 hr 38 min 12 sec) 
Heartbeat CPU 0 instructions: 70000003 cycles: 96178308 heartbeat IPC: 0.697899 cumulative IPC: 0.650324 (Simulation time: 0 hr 38 min 41 sec) 
Heartbeat CPU 0 instructions: 71000000 cycles: 97713787 heartbeat IPC: 0.651261 cumulative IPC: 0.650339 (Simulation time: 0 hr 39 min 13 sec) 
Heartbeat CPU 0 instructions: 72000000 cycles: 99065988 heartbeat IPC: 0.739535 cumulative IPC: 0.651607 (Simulation time: 0 hr 39 min 45 sec) 
Heartbeat CPU 0 instructions: 73000003 cycles: 100485490 heartbeat IPC: 0.704475 cumulative IPC: 0.652384 (Simulation time: 0 hr 40 min 17 sec) 
Heartbeat CPU 0 instructions: 74000002 cycles: 102044378 heartbeat IPC: 0.641482 cumulative IPC: 0.652211 (Simulation time: 0 hr 40 min 50 sec) 
Heartbeat CPU 0 instructions: 75000002 cycles: 103396484 heartbeat IPC: 0.739587 cumulative IPC: 0.653398 (Simulation time: 0 hr 41 min 23 sec) 
Heartbeat CPU 0 instructions: 76000000 cycles: 104813116 heartbeat IPC: 0.705898 cumulative IPC: 0.654135 (Simulation time: 0 hr 41 min 55 sec) 
Heartbeat CPU 0 instructions: 77000001 cycles: 106401633 heartbeat IPC: 0.629519 cumulative IPC: 0.653754 (Simulation time: 0 hr 42 min 28 sec) 
Heartbeat CPU 0 instructions: 78000002 cycles: 107771106 heartbeat IPC: 0.730209 cumulative IPC: 0.654762 (Simulation time: 0 hr 43 min 2 sec) 
Heartbeat CPU 0 instructions: 79000000 cycles: 109173490 heartbeat IPC: 0.71307 cumulative IPC: 0.655539 (Simulation time: 0 hr 43 min 36 sec) 
Heartbeat CPU 0 instructions: 80000000 cycles: 110773203 heartbeat IPC: 0.625112 cumulative IPC: 0.655083 (Simulation time: 0 hr 44 min 9 sec) 
Heartbeat CPU 0 instructions: 81000003 cycles: 112160840 heartbeat IPC: 0.720652 cumulative IPC: 0.655924 (Simulation time: 0 hr 44 min 40 sec) 
Heartbeat CPU 0 instructions: 82000001 cycles: 113599492 heartbeat IPC: 0.695094 cumulative IPC: 0.656438 (Simulation time: 0 hr 45 min 11 sec) 
Heartbeat CPU 0 instructions: 83000001 cycles: 115177146 heartbeat IPC: 0.633853 cumulative IPC: 0.656117 (Simulation time: 0 hr 45 min 49 sec) 
Heartbeat CPU 0 instructions: 84000000 cycles: 116641017 heartbeat IPC: 0.68312 cumulative IPC: 0.656468 (Simulation time: 0 hr 46 min 22 sec) 
Heartbeat CPU 0 instructions: 85000002 cycles: 118007773 heartbeat IPC: 0.731661 cumulative IPC: 0.657369 (Simulation time: 0 hr 46 min 52 sec) 
Heartbeat CPU 0 instructions: 86000002 cycles: 119619300 heartbeat IPC: 0.620529 cumulative IPC: 0.656856 (Simulation time: 0 hr 47 min 27 sec) 
Heartbeat CPU 0 instructions: 87000003 cycles: 121092842 heartbeat IPC: 0.678638 cumulative IPC: 0.65713 (Simulation time: 0 hr 47 min 59 sec) 
Heartbeat CPU 0 instructions: 88000000 cycles: 122412238 heartbeat IPC: 0.75792 cumulative IPC: 0.658252 (Simulation time: 0 hr 48 min 30 sec) 
Heartbeat CPU 0 instructions: 89000003 cycles: 123998837 heartbeat IPC: 0.630281 cumulative IPC: 0.657882 (Simulation time: 0 hr 49 min 7 sec) 
Heartbeat CPU 0 instructions: 90000001 cycles: 125515508 heartbeat IPC: 0.659337 cumulative IPC: 0.657901 (Simulation time: 0 hr 49 min 41 sec) 
Heartbeat CPU 0 instructions: 91000000 cycles: 126851288 heartbeat IPC: 0.748626 cumulative IPC: 0.658886 (Simulation time: 0 hr 50 min 11 sec) 
Heartbeat CPU 0 instructions: 92000000 cycles: 128434865 heartbeat IPC: 0.631482 cumulative IPC: 0.658538 (Simulation time: 0 hr 50 min 44 sec) 
Heartbeat CPU 0 instructions: 93000003 cycles: 129970884 heartbeat IPC: 0.651036 cumulative IPC: 0.658446 (Simulation time: 0 hr 51 min 16 sec) 
Heartbeat CPU 0 instructions: 94000002 cycles: 131288020 heartbeat IPC: 0.759222 cumulative IPC: 0.659489 (Simulation time: 0 hr 51 min 47 sec) 
Heartbeat CPU 0 instructions: 95000001 cycles: 132845960 heartbeat IPC: 0.641873 cumulative IPC: 0.659276 (Simulation time: 0 hr 52 min 20 sec) 
Heartbeat CPU 0 instructions: 96000000 cycles: 134394393 heartbeat IPC: 0.645814 cumulative IPC: 0.659116 (Simulation time: 0 hr 52 min 53 sec) 
Heartbeat CPU 0 instructions: 97000002 cycles: 135750748 heartbeat IPC: 0.737272 cumulative IPC: 0.65992 (Simulation time: 0 hr 53 min 23 sec) 
Heartbeat CPU 0 instructions: 98000000 cycles: 137369808 heartbeat IPC: 0.617641 cumulative IPC: 0.659407 (Simulation time: 0 hr 53 min 56 sec) 
Heartbeat CPU 0 instructions: 99000001 cycles: 138898316 heartbeat IPC: 0.654233 cumulative IPC: 0.659348 (Simulation time: 0 hr 54 min 26 sec) 
Heartbeat CPU 0 instructions: 100000000 cycles: 140233472 heartbeat IPC: 0.748975 cumulative IPC: 0.660226 (Simulation time: 0 hr 54 min 53 sec) 
Heartbeat CPU 0 instructions: 101000002 cycles: 141867742 heartbeat IPC: 0.611895 cumulative IPC: 0.659654 (Simulation time: 0 hr 55 min 23 sec) 
Heartbeat CPU 0 instructions: 102000002 cycles: 143423279 heartbeat IPC: 0.642865 cumulative IPC: 0.659467 (Simulation time: 0 hr 55 min 51 sec) 
Heartbeat CPU 0 instructions: 103000001 cycles: 144786356 heartbeat IPC: 0.733634 cumulative IPC: 0.660184 (Simulation time: 0 hr 56 min 18 sec) 
Heartbeat CPU 0 instructions: 104000000 cycles: 146413553 heartbeat IPC: 0.614553 cumulative IPC: 0.659663 (Simulation time: 0 hr 56 min 47 sec) 
Heartbeat CPU 0 instructions: 105000001 cycles: 147934819 heartbeat IPC: 0.657348 cumulative IPC: 0.659639 (Simulation time: 0 hr 57 min 15 sec) 
Heartbeat CPU 0 instructions: 106000003 cycles: 149284415 heartbeat IPC: 0.740964 cumulative IPC: 0.660394 (Simulation time: 0 hr 57 min 42 sec) 
Heartbeat CPU 0 instructions: 107000001 cycles: 150949468 heartbeat IPC: 0.60058 cumulative IPC: 0.659716 (Simulation time: 0 hr 58 min 10 sec) 
Heartbeat CPU 0 instructions: 108000000 cycles: 152462718 heartbeat IPC: 0.660829 cumulative IPC: 0.659728 (Simulation time: 0 hr 58 min 35 sec) 
Heartbeat CPU 0 instructions: 109000003 cycles: 153796861 heartbeat IPC: 0.749547 cumulative IPC: 0.660527 (Simulation time: 0 hr 58 min 57 sec) 
Heartbeat CPU 0 instructions: 110000001 cycles: 155525780 heartbeat IPC: 0.578395 cumulative IPC: 0.659591 (Simulation time: 0 hr 59 min 21 sec) 
Finished CPU 0 instructions: 100000003 cycles: 151609195 cummulative IPC: 0.659591 (Simulation time: 0 hr 59 min 21 sec) 

ChampSim completed all CPUs

Region of Interest Statistics

CPU 0 cummulative IPC: 0.659591 instructions: 100000003 cycles: 151609195
LLC TOTAL     ACCESS:    6075996  HIT:    1245983  MISS:    4830013
LLC LOAD      ACCESS:     448734  HIT:         49  MISS:     448685
LLC RFO       ACCESS:    2591726  HIT:     471725  MISS:    2120001
LLC PREFETCH  ACCESS:     443580  HIT:          5  MISS:     443575
LLC WRITEBACK ACCESS:    2591956  HIT:     774204  MISS:    1817752
