
*** ChampSim Multicore Out-of-Order Simulator ***

Warmup Instructions: 10000000
Simulation Instructions: 100000000
Configuration: 2
Number of CPUs: 1
LLC sets: 2048
LLC ways: 16
Off-chip DRAM Channels: 1 Width: 64-bit Data Rate: 1600 MT/s

CPU 0 runs /datasets/cs240c-wi22-a00-public/data/Assignment2-gz/perlbench_53B.trace.gz
CPU 0 L1D next line prefetcher
CPU 0 L2C IP-based stride prefetcher
config 2, num_core 1, llc_sets 2048
Heartbeat CPU 0 instructions: 1000000 cycles: 616074 heartbeat IPC: 1.62318 cumulative IPC: 1.62318 (Simulation time: 0 hr 1 min 1 sec) 
Heartbeat CPU 0 instructions: 2000001 cycles: 1253362 heartbeat IPC: 1.56915 cumulative IPC: 1.59571 (Simulation time: 0 hr 2 min 9 sec) 
Heartbeat CPU 0 instructions: 3000002 cycles: 1908944 heartbeat IPC: 1.52536 cumulative IPC: 1.57155 (Simulation time: 0 hr 3 min 21 sec) 
Heartbeat CPU 0 instructions: 4000000 cycles: 2525985 heartbeat IPC: 1.62063 cumulative IPC: 1.58354 (Simulation time: 0 hr 4 min 26 sec) 
Heartbeat CPU 0 instructions: 5000001 cycles: 3154542 heartbeat IPC: 1.59095 cumulative IPC: 1.58502 (Simulation time: 0 hr 5 min 33 sec) 
Heartbeat CPU 0 instructions: 6000001 cycles: 3770735 heartbeat IPC: 1.62287 cumulative IPC: 1.5912 (Simulation time: 0 hr 6 min 37 sec) 
Heartbeat CPU 0 instructions: 7000002 cycles: 4394573 heartbeat IPC: 1.60298 cumulative IPC: 1.59287 (Simulation time: 0 hr 7 min 45 sec) 
Heartbeat CPU 0 instructions: 8000000 cycles: 5005240 heartbeat IPC: 1.63755 cumulative IPC: 1.59833 (Simulation time: 0 hr 8 min 47 sec) 
Heartbeat CPU 0 instructions: 9000000 cycles: 5657172 heartbeat IPC: 1.5339 cumulative IPC: 1.5909 (Simulation time: 0 hr 9 min 56 sec) 
Heartbeat CPU 0 instructions: 10000001 cycles: 6293647 heartbeat IPC: 1.57116 cumulative IPC: 1.5889 (Simulation time: 0 hr 11 min 0 sec) 

Warmup complete CPU 0 instructions: 10000001 cycles: 6293647 (Simulation time: 0 hr 11 min 0 sec) 

Heartbeat CPU 0 instructions: 11000000 cycles: 9218704 heartbeat IPC: 0.341873 cumulative IPC: 0.341873 (Simulation time: 0 hr 12 min 11 sec) 
Heartbeat CPU 0 instructions: 12000000 cycles: 12222765 heartbeat IPC: 0.332883 cumulative IPC: 0.337318 (Simulation time: 0 hr 13 min 32 sec) 
Heartbeat CPU 0 instructions: 13000000 cycles: 14637970 heartbeat IPC: 0.414044 cumulative IPC: 0.359526 (Simulation time: 0 hr 14 min 41 sec) 
Heartbeat CPU 0 instructions: 14000000 cycles: 17224738 heartbeat IPC: 0.386583 cumulative IPC: 0.365929 (Simulation time: 0 hr 15 min 53 sec) 
Heartbeat CPU 0 instructions: 15000001 cycles: 20135036 heartbeat IPC: 0.343608 cumulative IPC: 0.361235 (Simulation time: 0 hr 17 min 8 sec) 
Heartbeat CPU 0 instructions: 16000000 cycles: 22804958 heartbeat IPC: 0.374542 cumulative IPC: 0.363387 (Simulation time: 0 hr 18 min 24 sec) 
Heartbeat CPU 0 instructions: 17000001 cycles: 25496117 heartbeat IPC: 0.371587 cumulative IPC: 0.364536 (Simulation time: 0 hr 19 min 40 sec) 
Heartbeat CPU 0 instructions: 18000002 cycles: 28353998 heartbeat IPC: 0.34991 cumulative IPC: 0.362642 (Simulation time: 0 hr 21 min 1 sec) 
Heartbeat CPU 0 instructions: 19000000 cycles: 31179348 heartbeat IPC: 0.353938 cumulative IPC: 0.361653 (Simulation time: 0 hr 22 min 10 sec) 
Heartbeat CPU 0 instructions: 20000000 cycles: 34032656 heartbeat IPC: 0.35047 cumulative IPC: 0.360503 (Simulation time: 0 hr 23 min 31 sec) 
Heartbeat CPU 0 instructions: 21000000 cycles: 36392635 heartbeat IPC: 0.423733 cumulative IPC: 0.365461 (Simulation time: 0 hr 24 min 48 sec) 
Heartbeat CPU 0 instructions: 22000000 cycles: 38468927 heartbeat IPC: 0.481628 cumulative IPC: 0.372957 (Simulation time: 0 hr 26 min 6 sec) 
Heartbeat CPU 0 instructions: 23000001 cycles: 40398960 heartbeat IPC: 0.518126 cumulative IPC: 0.381172 (Simulation time: 0 hr 27 min 13 sec) 
Heartbeat CPU 0 instructions: 24000000 cycles: 42795458 heartbeat IPC: 0.417275 cumulative IPC: 0.383543 (Simulation time: 0 hr 28 min 36 sec) 
Heartbeat CPU 0 instructions: 25000000 cycles: 44807560 heartbeat IPC: 0.496993 cumulative IPC: 0.38947 (Simulation time: 0 hr 29 min 41 sec) 
Heartbeat CPU 0 instructions: 26000001 cycles: 46792579 heartbeat IPC: 0.503774 cumulative IPC: 0.395072 (Simulation time: 0 hr 30 min 49 sec) 
Heartbeat CPU 0 instructions: 27000002 cycles: 49086961 heartbeat IPC: 0.435848 cumulative IPC: 0.397258 (Simulation time: 0 hr 32 min 0 sec) 
Heartbeat CPU 0 instructions: 28000000 cycles: 51651062 heartbeat IPC: 0.389999 cumulative IPC: 0.396848 (Simulation time: 0 hr 33 min 25 sec) 
Heartbeat CPU 0 instructions: 29000000 cycles: 53970963 heartbeat IPC: 0.431053 cumulative IPC: 0.398512 (Simulation time: 0 hr 34 min 51 sec) 
Heartbeat CPU 0 instructions: 30000000 cycles: 56013759 heartbeat IPC: 0.489525 cumulative IPC: 0.402252 (Simulation time: 0 hr 36 min 13 sec) 
Heartbeat CPU 0 instructions: 31000001 cycles: 58001177 heartbeat IPC: 0.503166 cumulative IPC: 0.40613 (Simulation time: 0 hr 37 min 15 sec) 
Heartbeat CPU 0 instructions: 32000000 cycles: 59999004 heartbeat IPC: 0.500543 cumulative IPC: 0.409643 (Simulation time: 0 hr 38 min 18 sec) 
Heartbeat CPU 0 instructions: 33000003 cycles: 62453914 heartbeat IPC: 0.407348 cumulative IPC: 0.409542 (Simulation time: 0 hr 39 min 30 sec) 
Heartbeat CPU 0 instructions: 34000000 cycles: 65151137 heartbeat IPC: 0.370751 cumulative IPC: 0.407765 (Simulation time: 0 hr 40 min 44 sec) 
Heartbeat CPU 0 instructions: 35000000 cycles: 67701415 heartbeat IPC: 0.392114 cumulative IPC: 0.407115 (Simulation time: 0 hr 41 min 55 sec) 
Heartbeat CPU 0 instructions: 36000000 cycles: 70492673 heartbeat IPC: 0.358261 cumulative IPC: 0.404991 (Simulation time: 0 hr 43 min 12 sec) 
Heartbeat CPU 0 instructions: 37000002 cycles: 73330941 heartbeat IPC: 0.352328 cumulative IPC: 0.402761 (Simulation time: 0 hr 44 min 32 sec) 
Heartbeat CPU 0 instructions: 38000000 cycles: 76201122 heartbeat IPC: 0.348409 cumulative IPC: 0.400529 (Simulation time: 0 hr 45 min 50 sec) 
Heartbeat CPU 0 instructions: 39000001 cycles: 78868494 heartbeat IPC: 0.374901 cumulative IPC: 0.399587 (Simulation time: 0 hr 46 min 59 sec) 
Heartbeat CPU 0 instructions: 40000000 cycles: 81465690 heartbeat IPC: 0.38503 cumulative IPC: 0.399085 (Simulation time: 0 hr 48 min 20 sec) 
Heartbeat CPU 0 instructions: 41000002 cycles: 84335742 heartbeat IPC: 0.348426 cumulative IPC: 0.397222 (Simulation time: 0 hr 49 min 37 sec) 
Heartbeat CPU 0 instructions: 42000000 cycles: 86940225 heartbeat IPC: 0.383953 cumulative IPC: 0.396793 (Simulation time: 0 hr 50 min 53 sec) 
Heartbeat CPU 0 instructions: 43000002 cycles: 89765551 heartbeat IPC: 0.353942 cumulative IPC: 0.395343 (Simulation time: 0 hr 52 min 3 sec) 
Heartbeat CPU 0 instructions: 44000000 cycles: 92429925 heartbeat IPC: 0.375322 cumulative IPC: 0.394723 (Simulation time: 0 hr 53 min 19 sec) 
Heartbeat CPU 0 instructions: 45000001 cycles: 93889960 heartbeat IPC: 0.684916 cumulative IPC: 0.39956 (Simulation time: 0 hr 54 min 11 sec) 
Heartbeat CPU 0 instructions: 46000000 cycles: 95912784 heartbeat IPC: 0.494358 cumulative IPC: 0.4017 (Simulation time: 0 hr 55 min 2 sec) 
Heartbeat CPU 0 instructions: 47000002 cycles: 97828187 heartbeat IPC: 0.522084 cumulative IPC: 0.404219 (Simulation time: 0 hr 55 min 55 sec) 
Heartbeat CPU 0 instructions: 48000000 cycles: 99748402 heartbeat IPC: 0.520774 cumulative IPC: 0.406614 (Simulation time: 0 hr 56 min 47 sec) 
Heartbeat CPU 0 instructions: 49000000 cycles: 102093195 heartbeat IPC: 0.426477 cumulative IPC: 0.4071 (Simulation time: 0 hr 57 min 42 sec) 
Heartbeat CPU 0 instructions: 50000002 cycles: 103957185 heartbeat IPC: 0.536485 cumulative IPC: 0.409569 (Simulation time: 0 hr 58 min 30 sec) 
Heartbeat CPU 0 instructions: 51000000 cycles: 105888423 heartbeat IPC: 0.517802 cumulative IPC: 0.411668 (Simulation time: 0 hr 59 min 11 sec) 
Heartbeat CPU 0 instructions: 52000000 cycles: 107803428 heartbeat IPC: 0.522192 cumulative IPC: 0.413753 (Simulation time: 0 hr 59 min 45 sec) 
Heartbeat CPU 0 instructions: 53000002 cycles: 109754093 heartbeat IPC: 0.512647 cumulative IPC: 0.415618 (Simulation time: 1 hr 0 min 15 sec) 
Heartbeat CPU 0 instructions: 54000000 cycles: 112647323 heartbeat IPC: 0.345634 cumulative IPC: 0.413714 (Simulation time: 1 hr 0 min 48 sec) 
Heartbeat CPU 0 instructions: 55000000 cycles: 115135112 heartbeat IPC: 0.401963 cumulative IPC: 0.413445 (Simulation time: 1 hr 1 min 18 sec) 
Heartbeat CPU 0 instructions: 56000000 cycles: 117934740 heartbeat IPC: 0.35719 cumulative IPC: 0.412035 (Simulation time: 1 hr 1 min 50 sec) 
Heartbeat CPU 0 instructions: 57000001 cycles: 120922598 heartbeat IPC: 0.334688 cumulative IPC: 0.410019 (Simulation time: 1 hr 2 min 22 sec) 
Heartbeat CPU 0 instructions: 58000003 cycles: 123891409 heartbeat IPC: 0.336836 cumulative IPC: 0.408171 (Simulation time: 1 hr 3 min 0 sec) 
Heartbeat CPU 0 instructions: 59000002 cycles: 126714489 heartbeat IPC: 0.354223 cumulative IPC: 0.406906 (Simulation time: 1 hr 3 min 25 sec) 
Heartbeat CPU 0 instructions: 60000000 cycles: 129489236 heartbeat IPC: 0.360393 cumulative IPC: 0.405859 (Simulation time: 1 hr 3 min 48 sec) 
Heartbeat CPU 0 instructions: 61000002 cycles: 132136171 heartbeat IPC: 0.377796 cumulative IPC: 0.405268 (Simulation time: 1 hr 4 min 11 sec) 
Heartbeat CPU 0 instructions: 62000002 cycles: 134839684 heartbeat IPC: 0.369889 cumulative IPC: 0.404524 (Simulation time: 1 hr 4 min 31 sec) 
Heartbeat CPU 0 instructions: 63000001 cycles: 137525858 heartbeat IPC: 0.372276 cumulative IPC: 0.403864 (Simulation time: 1 hr 4 min 52 sec) 
Heartbeat CPU 0 instructions: 64000000 cycles: 140200601 heartbeat IPC: 0.373867 cumulative IPC: 0.403265 (Simulation time: 1 hr 5 min 11 sec) 
Heartbeat CPU 0 instructions: 65000003 cycles: 142854568 heartbeat IPC: 0.376796 cumulative IPC: 0.402751 (Simulation time: 1 hr 5 min 29 sec) 
Heartbeat CPU 0 instructions: 66000001 cycles: 145500658 heartbeat IPC: 0.377915 cumulative IPC: 0.402279 (Simulation time: 1 hr 5 min 45 sec) 
Heartbeat CPU 0 instructions: 67000001 cycles: 148119243 heartbeat IPC: 0.381886 cumulative IPC: 0.401902 (Simulation time: 1 hr 6 min 0 sec) 
Heartbeat CPU 0 instructions: 68000000 cycles: 150809215 heartbeat IPC: 0.371751 cumulative IPC: 0.401341 (Simulation time: 1 hr 6 min 15 sec) 
Heartbeat CPU 0 instructions: 69000001 cycles: 153467814 heartbeat IPC: 0.376138 cumulative IPC: 0.400886 (Simulation time: 1 hr 6 min 30 sec) 
Heartbeat CPU 0 instructions: 70000001 cycles: 156100928 heartbeat IPC: 0.379778 cumulative IPC: 0.400515 (Simulation time: 1 hr 6 min 43 sec) 
Heartbeat CPU 0 instructions: 71000001 cycles: 158824379 heartbeat IPC: 0.367181 cumulative IPC: 0.399919 (Simulation time: 1 hr 6 min 58 sec) 
Heartbeat CPU 0 instructions: 72000000 cycles: 161427146 heartbeat IPC: 0.384206 cumulative IPC: 0.399656 (Simulation time: 1 hr 7 min 10 sec) 
Heartbeat CPU 0 instructions: 73000002 cycles: 164075781 heartbeat IPC: 0.377554 cumulative IPC: 0.399285 (Simulation time: 1 hr 7 min 21 sec) 
Heartbeat CPU 0 instructions: 74000001 cycles: 166770984 heartbeat IPC: 0.371029 cumulative IPC: 0.39881 (Simulation time: 1 hr 7 min 30 sec) 
Heartbeat CPU 0 instructions: 75000001 cycles: 169455435 heartbeat IPC: 0.372516 cumulative IPC: 0.398378 (Simulation time: 1 hr 7 min 38 sec) 
Heartbeat CPU 0 instructions: 76000000 cycles: 172119808 heartbeat IPC: 0.375322 cumulative IPC: 0.398007 (Simulation time: 1 hr 7 min 46 sec) 
Heartbeat CPU 0 instructions: 77000002 cycles: 174815643 heartbeat IPC: 0.370943 cumulative IPC: 0.397574 (Simulation time: 1 hr 7 min 53 sec) 
Heartbeat CPU 0 instructions: 78000000 cycles: 177489993 heartbeat IPC: 0.373922 cumulative IPC: 0.397205 (Simulation time: 1 hr 8 min 1 sec) 
Heartbeat CPU 0 instructions: 79000002 cycles: 180170448 heartbeat IPC: 0.373072 cumulative IPC: 0.396833 (Simulation time: 1 hr 8 min 8 sec) 
Heartbeat CPU 0 instructions: 80000000 cycles: 182825740 heartbeat IPC: 0.376606 cumulative IPC: 0.396528 (Simulation time: 1 hr 8 min 16 sec) 
Heartbeat CPU 0 instructions: 81000000 cycles: 185451449 heartbeat IPC: 0.38085 cumulative IPC: 0.396299 (Simulation time: 1 hr 8 min 23 sec) 
Heartbeat CPU 0 instructions: 82000002 cycles: 188150962 heartbeat IPC: 0.370438 cumulative IPC: 0.395915 (Simulation time: 1 hr 8 min 29 sec) 
Heartbeat CPU 0 instructions: 83000000 cycles: 190819935 heartbeat IPC: 0.374675 cumulative IPC: 0.395608 (Simulation time: 1 hr 8 min 35 sec) 
Heartbeat CPU 0 instructions: 84000000 cycles: 193501795 heartbeat IPC: 0.372876 cumulative IPC: 0.395282 (Simulation time: 1 hr 8 min 40 sec) 
Heartbeat CPU 0 instructions: 85000001 cycles: 196185575 heartbeat IPC: 0.372609 cumulative IPC: 0.394962 (Simulation time: 1 hr 8 min 46 sec) 
Heartbeat CPU 0 instructions: 86000000 cycles: 198680330 heartbeat IPC: 0.400841 cumulative IPC: 0.395038 (Simulation time: 1 hr 8 min 53 sec) 
Heartbeat CPU 0 instructions: 87000000 cycles: 200812230 heartbeat IPC: 0.469065 cumulative IPC: 0.395849 (Simulation time: 1 hr 8 min 58 sec) 
Heartbeat CPU 0 instructions: 88000000 cycles: 202809768 heartbeat IPC: 0.500616 cumulative IPC: 0.396914 (Simulation time: 1 hr 9 min 2 sec) 
Heartbeat CPU 0 instructions: 89000001 cycles: 204886889 heartbeat IPC: 0.481436 cumulative IPC: 0.397798 (Simulation time: 1 hr 9 min 6 sec) 
Heartbeat CPU 0 instructions: 90000000 cycles: 207542880 heartbeat IPC: 0.376507 cumulative IPC: 0.397517 (Simulation time: 1 hr 9 min 13 sec) 
Heartbeat CPU 0 instructions: 91000001 cycles: 210306801 heartbeat IPC: 0.361805 cumulative IPC: 0.397033 (Simulation time: 1 hr 9 min 19 sec) 
Heartbeat CPU 0 instructions: 92000000 cycles: 213007570 heartbeat IPC: 0.370265 cumulative IPC: 0.396683 (Simulation time: 1 hr 9 min 25 sec) 
Heartbeat CPU 0 instructions: 93000000 cycles: 215686691 heartbeat IPC: 0.373257 cumulative IPC: 0.396384 (Simulation time: 1 hr 9 min 31 sec) 
Heartbeat CPU 0 instructions: 94000002 cycles: 218352617 heartbeat IPC: 0.375105 cumulative IPC: 0.396116 (Simulation time: 1 hr 9 min 36 sec) 
Heartbeat CPU 0 instructions: 95000000 cycles: 220996781 heartbeat IPC: 0.378191 cumulative IPC: 0.395895 (Simulation time: 1 hr 9 min 43 sec) 
Heartbeat CPU 0 instructions: 96000000 cycles: 223680382 heartbeat IPC: 0.372634 cumulative IPC: 0.395608 (Simulation time: 1 hr 9 min 48 sec) 
Heartbeat CPU 0 instructions: 97000000 cycles: 226336264 heartbeat IPC: 0.376523 cumulative IPC: 0.395378 (Simulation time: 1 hr 9 min 53 sec) 
Heartbeat CPU 0 instructions: 98000000 cycles: 228974599 heartbeat IPC: 0.379027 cumulative IPC: 0.395184 (Simulation time: 1 hr 9 min 59 sec) 
Heartbeat CPU 0 instructions: 99000002 cycles: 231602835 heartbeat IPC: 0.380484 cumulative IPC: 0.395013 (Simulation time: 1 hr 10 min 4 sec) 
Heartbeat CPU 0 instructions: 100000000 cycles: 234242267 heartbeat IPC: 0.378869 cumulative IPC: 0.394826 (Simulation time: 1 hr 10 min 10 sec) 
Heartbeat CPU 0 instructions: 101000002 cycles: 236910551 heartbeat IPC: 0.374773 cumulative IPC: 0.394594 (Simulation time: 1 hr 10 min 15 sec) 
Heartbeat CPU 0 instructions: 102000000 cycles: 239558855 heartbeat IPC: 0.377599 cumulative IPC: 0.394401 (Simulation time: 1 hr 10 min 20 sec) 
Heartbeat CPU 0 instructions: 103000000 cycles: 242191549 heartbeat IPC: 0.379839 cumulative IPC: 0.394238 (Simulation time: 1 hr 10 min 25 sec) 
Heartbeat CPU 0 instructions: 104000000 cycles: 244855339 heartbeat IPC: 0.375405 cumulative IPC: 0.394028 (Simulation time: 1 hr 10 min 31 sec) 
Heartbeat CPU 0 instructions: 105000003 cycles: 247035081 heartbeat IPC: 0.458771 cumulative IPC: 0.394614 (Simulation time: 1 hr 10 min 36 sec) 
Heartbeat CPU 0 instructions: 106000000 cycles: 249012611 heartbeat IPC: 0.50568 cumulative IPC: 0.395519 (Simulation time: 1 hr 10 min 40 sec) 
Heartbeat CPU 0 instructions: 107000003 cycles: 250988714 heartbeat IPC: 0.506048 cumulative IPC: 0.396412 (Simulation time: 1 hr 10 min 44 sec) 
Heartbeat CPU 0 instructions: 108000000 cycles: 253696273 heartbeat IPC: 0.369335 cumulative IPC: 0.396115 (Simulation time: 1 hr 10 min 49 sec) 
Heartbeat CPU 0 instructions: 109000001 cycles: 256390305 heartbeat IPC: 0.371191 cumulative IPC: 0.395847 (Simulation time: 1 hr 10 min 54 sec) 
Heartbeat CPU 0 instructions: 110000000 cycles: 258889316 heartbeat IPC: 0.400158 cumulative IPC: 0.39589 (Simulation time: 1 hr 10 min 59 sec) 
Finished CPU 0 instructions: 100000000 cycles: 252595670 cummulative IPC: 0.39589 (Simulation time: 1 hr 10 min 59 sec) 

ChampSim completed all CPUs

Region of Interest Statistics

CPU 0 cummulative IPC: 0.39589 instructions: 100000000 cycles: 252595670
LLC TOTAL     ACCESS:     656676  HIT:     559203  MISS:      97473
LLC LOAD      ACCESS:     310879  HIT:     300159  MISS:      10720
LLC RFO       ACCESS:      30805  HIT:      26305  MISS:       4500
LLC PREFETCH  ACCESS:     212710  HIT:     133352  MISS:      79358
LLC WRITEBACK ACCESS:     102282  HIT:      99387  MISS:       2895
