
*** ChampSim Multicore Out-of-Order Simulator ***

Warmup Instructions: 10000000
Simulation Instructions: 100000000
Configuration: 2
Number of CPUs: 1
LLC sets: 2048
LLC ways: 16
Off-chip DRAM Channels: 1 Width: 64-bit Data Rate: 1600 MT/s

CPU 0 runs /datasets/cs240c-wi22-a00-public/data/Assignment2-gz/sphinx3_2520B.trace.gz
CPU 0 L1D next line prefetcher
CPU 0 L2C IP-based stride prefetcher
config 2, num_core 1, llc_sets 2048
Heartbeat CPU 0 instructions: 1000003 cycles: 338965 heartbeat IPC: 2.95017 cumulative IPC: 2.95017 (Simulation time: 0 hr 0 min 34 sec) 
Heartbeat CPU 0 instructions: 2000000 cycles: 737245 heartbeat IPC: 2.51079 cumulative IPC: 2.7128 (Simulation time: 0 hr 1 min 8 sec) 
Heartbeat CPU 0 instructions: 3000003 cycles: 1185133 heartbeat IPC: 2.23271 cumulative IPC: 2.53136 (Simulation time: 0 hr 1 min 36 sec) 
Heartbeat CPU 0 instructions: 4000000 cycles: 1524172 heartbeat IPC: 2.9495 cumulative IPC: 2.62438 (Simulation time: 0 hr 2 min 6 sec) 
Heartbeat CPU 0 instructions: 5000001 cycles: 1902537 heartbeat IPC: 2.64295 cumulative IPC: 2.62807 (Simulation time: 0 hr 2 min 37 sec) 
Heartbeat CPU 0 instructions: 6000001 cycles: 2368118 heartbeat IPC: 2.14785 cumulative IPC: 2.53366 (Simulation time: 0 hr 3 min 8 sec) 
Heartbeat CPU 0 instructions: 7000001 cycles: 2707061 heartbeat IPC: 2.95035 cumulative IPC: 2.58583 (Simulation time: 0 hr 3 min 38 sec) 
Heartbeat CPU 0 instructions: 8000000 cycles: 3056093 heartbeat IPC: 2.86506 cumulative IPC: 2.61772 (Simulation time: 0 hr 4 min 10 sec) 
Heartbeat CPU 0 instructions: 9000000 cycles: 3509615 heartbeat IPC: 2.20496 cumulative IPC: 2.56438 (Simulation time: 0 hr 4 min 36 sec) 
Heartbeat CPU 0 instructions: 10000000 cycles: 3859731 heartbeat IPC: 2.8562 cumulative IPC: 2.59085 (Simulation time: 0 hr 5 min 5 sec) 

Warmup complete CPU 0 instructions: 10000004 cycles: 3859732 (Simulation time: 0 hr 5 min 5 sec) 

Heartbeat CPU 0 instructions: 11000001 cycles: 4553364 heartbeat IPC: 1.44169 cumulative IPC: 1.44168 (Simulation time: 0 hr 5 min 38 sec) 
Heartbeat CPU 0 instructions: 12000000 cycles: 5609204 heartbeat IPC: 0.947112 cumulative IPC: 1.1432 (Simulation time: 0 hr 6 min 10 sec) 
Heartbeat CPU 0 instructions: 13000002 cycles: 6431414 heartbeat IPC: 1.21624 cumulative IPC: 1.16655 (Simulation time: 0 hr 6 min 44 sec) 
Heartbeat CPU 0 instructions: 14000002 cycles: 7100246 heartbeat IPC: 1.49514 cumulative IPC: 1.23437 (Simulation time: 0 hr 7 min 16 sec) 
Heartbeat CPU 0 instructions: 15000003 cycles: 8117689 heartbeat IPC: 0.982857 cumulative IPC: 1.17427 (Simulation time: 0 hr 7 min 47 sec) 
Heartbeat CPU 0 instructions: 16000000 cycles: 8929063 heartbeat IPC: 1.23247 cumulative IPC: 1.18359 (Simulation time: 0 hr 8 min 18 sec) 
Heartbeat CPU 0 instructions: 17000000 cycles: 9581698 heartbeat IPC: 1.53225 cumulative IPC: 1.22336 (Simulation time: 0 hr 8 min 49 sec) 
Heartbeat CPU 0 instructions: 18000002 cycles: 10500729 heartbeat IPC: 1.0881 cumulative IPC: 1.20464 (Simulation time: 0 hr 9 min 20 sec) 
Heartbeat CPU 0 instructions: 19000001 cycles: 11307068 heartbeat IPC: 1.24017 cumulative IPC: 1.20849 (Simulation time: 0 hr 9 min 51 sec) 
Heartbeat CPU 0 instructions: 20000000 cycles: 11952631 heartbeat IPC: 1.54903 cumulative IPC: 1.23565 (Simulation time: 0 hr 10 min 20 sec) 
Heartbeat CPU 0 instructions: 21000001 cycles: 13125040 heartbeat IPC: 0.852946 cumulative IPC: 1.18722 (Simulation time: 0 hr 10 min 59 sec) 
Heartbeat CPU 0 instructions: 22000002 cycles: 14115235 heartbeat IPC: 1.0099 cumulative IPC: 1.1701 (Simulation time: 0 hr 11 min 35 sec) 
Heartbeat CPU 0 instructions: 23000001 cycles: 14938326 heartbeat IPC: 1.21493 cumulative IPC: 1.17343 (Simulation time: 0 hr 12 min 13 sec) 
Heartbeat CPU 0 instructions: 24000000 cycles: 15592460 heartbeat IPC: 1.52874 cumulative IPC: 1.19324 (Simulation time: 0 hr 12 min 49 sec) 
Heartbeat CPU 0 instructions: 25000003 cycles: 16421517 heartbeat IPC: 1.20619 cumulative IPC: 1.1941 (Simulation time: 0 hr 13 min 21 sec) 
Heartbeat CPU 0 instructions: 26000000 cycles: 17228229 heartbeat IPC: 1.2396 cumulative IPC: 1.19684 (Simulation time: 0 hr 13 min 54 sec) 
Heartbeat CPU 0 instructions: 27000000 cycles: 17875768 heartbeat IPC: 1.54431 cumulative IPC: 1.2129 (Simulation time: 0 hr 14 min 28 sec) 
Heartbeat CPU 0 instructions: 28000000 cycles: 18721251 heartbeat IPC: 1.18276 cumulative IPC: 1.21118 (Simulation time: 0 hr 15 min 0 sec) 
Heartbeat CPU 0 instructions: 29000003 cycles: 19527798 heartbeat IPC: 1.23986 cumulative IPC: 1.21266 (Simulation time: 0 hr 15 min 33 sec) 
Heartbeat CPU 0 instructions: 30000003 cycles: 20185511 heartbeat IPC: 1.52042 cumulative IPC: 1.22506 (Simulation time: 0 hr 16 min 7 sec) 
Heartbeat CPU 0 instructions: 31000001 cycles: 21027790 heartbeat IPC: 1.18725 cumulative IPC: 1.2232 (Simulation time: 0 hr 16 min 45 sec) 
Heartbeat CPU 0 instructions: 32000000 cycles: 21819613 heartbeat IPC: 1.26291 cumulative IPC: 1.22495 (Simulation time: 0 hr 17 min 22 sec) 
Heartbeat CPU 0 instructions: 33000000 cycles: 22482922 heartbeat IPC: 1.50759 cumulative IPC: 1.23502 (Simulation time: 0 hr 17 min 55 sec) 
Heartbeat CPU 0 instructions: 34000000 cycles: 23321308 heartbeat IPC: 1.19277 cumulative IPC: 1.2332 (Simulation time: 0 hr 18 min 28 sec) 
Heartbeat CPU 0 instructions: 35000003 cycles: 24108756 heartbeat IPC: 1.26993 cumulative IPC: 1.23463 (Simulation time: 0 hr 18 min 59 sec) 
Heartbeat CPU 0 instructions: 36000000 cycles: 24772635 heartbeat IPC: 1.50629 cumulative IPC: 1.24325 (Simulation time: 0 hr 19 min 27 sec) 
Heartbeat CPU 0 instructions: 37000000 cycles: 25624530 heartbeat IPC: 1.17385 cumulative IPC: 1.24054 (Simulation time: 0 hr 19 min 58 sec) 
Heartbeat CPU 0 instructions: 38000000 cycles: 26412081 heartbeat IPC: 1.26976 cumulative IPC: 1.24156 (Simulation time: 0 hr 20 min 28 sec) 
Heartbeat CPU 0 instructions: 39000000 cycles: 27111134 heartbeat IPC: 1.43051 cumulative IPC: 1.24724 (Simulation time: 0 hr 20 min 55 sec) 
Heartbeat CPU 0 instructions: 40000000 cycles: 27988141 heartbeat IPC: 1.14024 cumulative IPC: 1.24335 (Simulation time: 0 hr 21 min 24 sec) 
Heartbeat CPU 0 instructions: 41000001 cycles: 28761039 heartbeat IPC: 1.29383 cumulative IPC: 1.24491 (Simulation time: 0 hr 21 min 53 sec) 
Heartbeat CPU 0 instructions: 42000002 cycles: 29470669 heartbeat IPC: 1.40919 cumulative IPC: 1.24947 (Simulation time: 0 hr 22 min 21 sec) 
Heartbeat CPU 0 instructions: 43000001 cycles: 30305731 heartbeat IPC: 1.19751 cumulative IPC: 1.24783 (Simulation time: 0 hr 22 min 50 sec) 
Heartbeat CPU 0 instructions: 44000000 cycles: 31073332 heartbeat IPC: 1.30276 cumulative IPC: 1.24938 (Simulation time: 0 hr 23 min 16 sec) 
Heartbeat CPU 0 instructions: 45000001 cycles: 31783229 heartbeat IPC: 1.40866 cumulative IPC: 1.25342 (Simulation time: 0 hr 23 min 43 sec) 
Heartbeat CPU 0 instructions: 46000001 cycles: 32642142 heartbeat IPC: 1.16426 cumulative IPC: 1.25076 (Simulation time: 0 hr 24 min 11 sec) 
Heartbeat CPU 0 instructions: 47000003 cycles: 33396133 heartbeat IPC: 1.32628 cumulative IPC: 1.25269 (Simulation time: 0 hr 24 min 40 sec) 
Heartbeat CPU 0 instructions: 48000000 cycles: 34109486 heartbeat IPC: 1.40183 cumulative IPC: 1.25621 (Simulation time: 0 hr 25 min 7 sec) 
Heartbeat CPU 0 instructions: 49000002 cycles: 34928277 heartbeat IPC: 1.22132 cumulative IPC: 1.25529 (Simulation time: 0 hr 25 min 35 sec) 
Heartbeat CPU 0 instructions: 50000002 cycles: 35670267 heartbeat IPC: 1.34773 cumulative IPC: 1.25744 (Simulation time: 0 hr 26 min 1 sec) 
Heartbeat CPU 0 instructions: 51000001 cycles: 36395349 heartbeat IPC: 1.37915 cumulative IPC: 1.26016 (Simulation time: 0 hr 26 min 28 sec) 
Heartbeat CPU 0 instructions: 52000000 cycles: 37203723 heartbeat IPC: 1.23705 cumulative IPC: 1.2596 (Simulation time: 0 hr 26 min 57 sec) 
Heartbeat CPU 0 instructions: 53000003 cycles: 37948025 heartbeat IPC: 1.34354 cumulative IPC: 1.26143 (Simulation time: 0 hr 27 min 24 sec) 
Heartbeat CPU 0 instructions: 54000001 cycles: 38672091 heartbeat IPC: 1.38109 cumulative IPC: 1.26392 (Simulation time: 0 hr 27 min 52 sec) 
Heartbeat CPU 0 instructions: 55000000 cycles: 39465726 heartbeat IPC: 1.26002 cumulative IPC: 1.26383 (Simulation time: 0 hr 28 min 19 sec) 
Heartbeat CPU 0 instructions: 56000000 cycles: 40194335 heartbeat IPC: 1.37248 cumulative IPC: 1.26601 (Simulation time: 0 hr 28 min 46 sec) 
Heartbeat CPU 0 instructions: 57000000 cycles: 41027687 heartbeat IPC: 1.19997 cumulative IPC: 1.26453 (Simulation time: 0 hr 29 min 16 sec) 
Heartbeat CPU 0 instructions: 58000002 cycles: 42156821 heartbeat IPC: 0.885636 cumulative IPC: 1.25336 (Simulation time: 0 hr 29 min 44 sec) 
Heartbeat CPU 0 instructions: 59000001 cycles: 42993712 heartbeat IPC: 1.1949 cumulative IPC: 1.25211 (Simulation time: 0 hr 30 min 12 sec) 
Heartbeat CPU 0 instructions: 60000000 cycles: 43753741 heartbeat IPC: 1.31574 cumulative IPC: 1.25332 (Simulation time: 0 hr 30 min 40 sec) 
Heartbeat CPU 0 instructions: 61000001 cycles: 44443441 heartbeat IPC: 1.44991 cumulative IPC: 1.25666 (Simulation time: 0 hr 31 min 7 sec) 
Heartbeat CPU 0 instructions: 62000000 cycles: 45254005 heartbeat IPC: 1.23371 cumulative IPC: 1.25621 (Simulation time: 0 hr 31 min 33 sec) 
Heartbeat CPU 0 instructions: 63000002 cycles: 45994079 heartbeat IPC: 1.35122 cumulative IPC: 1.25788 (Simulation time: 0 hr 32 min 0 sec) 
Heartbeat CPU 0 instructions: 64000000 cycles: 46720766 heartbeat IPC: 1.37611 cumulative IPC: 1.25989 (Simulation time: 0 hr 32 min 26 sec) 
Heartbeat CPU 0 instructions: 65000003 cycles: 47523375 heartbeat IPC: 1.24594 cumulative IPC: 1.25963 (Simulation time: 0 hr 32 min 58 sec) 
Heartbeat CPU 0 instructions: 66000003 cycles: 48257489 heartbeat IPC: 1.36219 cumulative IPC: 1.26133 (Simulation time: 0 hr 33 min 29 sec) 
Heartbeat CPU 0 instructions: 67000003 cycles: 49034402 heartbeat IPC: 1.28715 cumulative IPC: 1.26177 (Simulation time: 0 hr 34 min 1 sec) 
Heartbeat CPU 0 instructions: 68000000 cycles: 49839159 heartbeat IPC: 1.24261 cumulative IPC: 1.26143 (Simulation time: 0 hr 34 min 28 sec) 
Heartbeat CPU 0 instructions: 69000003 cycles: 50564917 heartbeat IPC: 1.37787 cumulative IPC: 1.26324 (Simulation time: 0 hr 35 min 0 sec) 
Heartbeat CPU 0 instructions: 70000000 cycles: 51327364 heartbeat IPC: 1.31156 cumulative IPC: 1.26402 (Simulation time: 0 hr 35 min 25 sec) 
Heartbeat CPU 0 instructions: 71000002 cycles: 52129904 heartbeat IPC: 1.24605 cumulative IPC: 1.26372 (Simulation time: 0 hr 35 min 54 sec) 
Heartbeat CPU 0 instructions: 72000000 cycles: 52844942 heartbeat IPC: 1.39852 cumulative IPC: 1.26569 (Simulation time: 0 hr 36 min 23 sec) 
Heartbeat CPU 0 instructions: 73000003 cycles: 53603414 heartbeat IPC: 1.31844 cumulative IPC: 1.26649 (Simulation time: 0 hr 36 min 50 sec) 
Heartbeat CPU 0 instructions: 74000003 cycles: 54399688 heartbeat IPC: 1.25585 cumulative IPC: 1.26632 (Simulation time: 0 hr 37 min 17 sec) 
Heartbeat CPU 0 instructions: 75000002 cycles: 55115307 heartbeat IPC: 1.39739 cumulative IPC: 1.26815 (Simulation time: 0 hr 37 min 43 sec) 
Heartbeat CPU 0 instructions: 76000000 cycles: 55878136 heartbeat IPC: 1.31091 cumulative IPC: 1.26878 (Simulation time: 0 hr 38 min 10 sec) 
Heartbeat CPU 0 instructions: 77000003 cycles: 56700178 heartbeat IPC: 1.21649 cumulative IPC: 1.26797 (Simulation time: 0 hr 38 min 36 sec) 
Heartbeat CPU 0 instructions: 78000000 cycles: 57405449 heartbeat IPC: 1.41789 cumulative IPC: 1.26994 (Simulation time: 0 hr 39 min 1 sec) 
Heartbeat CPU 0 instructions: 79000003 cycles: 58174843 heartbeat IPC: 1.29973 cumulative IPC: 1.27036 (Simulation time: 0 hr 39 min 27 sec) 
Heartbeat CPU 0 instructions: 80000000 cycles: 58981920 heartbeat IPC: 1.23904 cumulative IPC: 1.26991 (Simulation time: 0 hr 39 min 55 sec) 
Heartbeat CPU 0 instructions: 81000001 cycles: 59676957 heartbeat IPC: 1.43877 cumulative IPC: 1.27201 (Simulation time: 0 hr 40 min 21 sec) 
Heartbeat CPU 0 instructions: 82000002 cycles: 60461603 heartbeat IPC: 1.27446 cumulative IPC: 1.27204 (Simulation time: 0 hr 40 min 51 sec) 
Heartbeat CPU 0 instructions: 83000003 cycles: 61281539 heartbeat IPC: 1.21961 cumulative IPC: 1.27129 (Simulation time: 0 hr 41 min 18 sec) 
Heartbeat CPU 0 instructions: 84000000 cycles: 61969145 heartbeat IPC: 1.45432 cumulative IPC: 1.27346 (Simulation time: 0 hr 41 min 44 sec) 
Heartbeat CPU 0 instructions: 85000001 cycles: 62774819 heartbeat IPC: 1.2412 cumulative IPC: 1.27302 (Simulation time: 0 hr 42 min 9 sec) 
Heartbeat CPU 0 instructions: 86000000 cycles: 63572101 heartbeat IPC: 1.25426 cumulative IPC: 1.27277 (Simulation time: 0 hr 42 min 36 sec) 
Heartbeat CPU 0 instructions: 87000003 cycles: 64248409 heartbeat IPC: 1.47862 cumulative IPC: 1.27507 (Simulation time: 0 hr 43 min 4 sec) 
Heartbeat CPU 0 instructions: 88000000 cycles: 65061809 heartbeat IPC: 1.2294 cumulative IPC: 1.27447 (Simulation time: 0 hr 43 min 31 sec) 
Heartbeat CPU 0 instructions: 89000002 cycles: 65841282 heartbeat IPC: 1.28292 cumulative IPC: 1.27457 (Simulation time: 0 hr 43 min 58 sec) 
Heartbeat CPU 0 instructions: 90000001 cycles: 66501922 heartbeat IPC: 1.51368 cumulative IPC: 1.27709 (Simulation time: 0 hr 44 min 25 sec) 
Heartbeat CPU 0 instructions: 91000001 cycles: 67318113 heartbeat IPC: 1.2252 cumulative IPC: 1.27643 (Simulation time: 0 hr 44 min 58 sec) 
Heartbeat CPU 0 instructions: 92000000 cycles: 68095075 heartbeat IPC: 1.28706 cumulative IPC: 1.27656 (Simulation time: 0 hr 45 min 26 sec) 
Heartbeat CPU 0 instructions: 93000002 cycles: 68750770 heartbeat IPC: 1.5251 cumulative IPC: 1.27907 (Simulation time: 0 hr 45 min 53 sec) 
Heartbeat CPU 0 instructions: 94000000 cycles: 69585354 heartbeat IPC: 1.1982 cumulative IPC: 1.27804 (Simulation time: 0 hr 46 min 21 sec) 
Heartbeat CPU 0 instructions: 95000000 cycles: 70348784 heartbeat IPC: 1.30988 cumulative IPC: 1.27841 (Simulation time: 0 hr 46 min 48 sec) 
Heartbeat CPU 0 instructions: 96000000 cycles: 71031873 heartbeat IPC: 1.46394 cumulative IPC: 1.28029 (Simulation time: 0 hr 47 min 16 sec) 
Heartbeat CPU 0 instructions: 97000002 cycles: 72210316 heartbeat IPC: 0.848579 cumulative IPC: 1.27285 (Simulation time: 0 hr 47 min 46 sec) 
Heartbeat CPU 0 instructions: 98000003 cycles: 73169141 heartbeat IPC: 1.04294 cumulative IPC: 1.26967 (Simulation time: 0 hr 48 min 17 sec) 
Heartbeat CPU 0 instructions: 99000000 cycles: 73977046 heartbeat IPC: 1.23777 cumulative IPC: 1.2693 (Simulation time: 0 hr 48 min 44 sec) 
Heartbeat CPU 0 instructions: 100000000 cycles: 74648258 heartbeat IPC: 1.48984 cumulative IPC: 1.27139 (Simulation time: 0 hr 49 min 9 sec) 
Heartbeat CPU 0 instructions: 101000001 cycles: 75997408 heartbeat IPC: 0.741208 cumulative IPC: 1.26148 (Simulation time: 0 hr 49 min 45 sec) 
Heartbeat CPU 0 instructions: 102000001 cycles: 76837136 heartbeat IPC: 1.19086 cumulative IPC: 1.26066 (Simulation time: 0 hr 50 min 12 sec) 
Heartbeat CPU 0 instructions: 103000001 cycles: 77580122 heartbeat IPC: 1.34592 cumulative IPC: 1.26152 (Simulation time: 0 hr 50 min 39 sec) 
Heartbeat CPU 0 instructions: 104000000 cycles: 78785003 heartbeat IPC: 0.829957 cumulative IPC: 1.25458 (Simulation time: 0 hr 51 min 7 sec) 
Heartbeat CPU 0 instructions: 105000002 cycles: 79635659 heartbeat IPC: 1.17557 cumulative IPC: 1.2537 (Simulation time: 0 hr 51 min 33 sec) 
Heartbeat CPU 0 instructions: 106000000 cycles: 80410506 heartbeat IPC: 1.29057 cumulative IPC: 1.25407 (Simulation time: 0 hr 51 min 59 sec) 
Heartbeat CPU 0 instructions: 107000000 cycles: 81405268 heartbeat IPC: 1.00527 cumulative IPC: 1.25088 (Simulation time: 0 hr 52 min 26 sec) 
Heartbeat CPU 0 instructions: 108000000 cycles: 82405180 heartbeat IPC: 1.00009 cumulative IPC: 1.24769 (Simulation time: 0 hr 52 min 53 sec) 
Heartbeat CPU 0 instructions: 109000003 cycles: 83205886 heartbeat IPC: 1.2489 cumulative IPC: 1.2477 (Simulation time: 0 hr 53 min 18 sec) 
Heartbeat CPU 0 instructions: 110000000 cycles: 83980931 heartbeat IPC: 1.29024 cumulative IPC: 1.24811 (Simulation time: 0 hr 53 min 44 sec) 
Finished CPU 0 instructions: 100000003 cycles: 80121203 cummulative IPC: 1.24811 (Simulation time: 0 hr 53 min 44 sec) 

ChampSim completed all CPUs

Region of Interest Statistics

CPU 0 cummulative IPC: 1.24811 instructions: 100000003 cycles: 80121203
LLC TOTAL     ACCESS:    1445905  HIT:     821283  MISS:     624622
LLC LOAD      ACCESS:     118921  HIT:      98556  MISS:      20365
LLC RFO       ACCESS:     121998  HIT:     118321  MISS:       3677
LLC PREFETCH  ACCESS:    1076592  HIT:     476961  MISS:     599631
LLC WRITEBACK ACCESS:     128394  HIT:     127445  MISS:        949
