
*** ChampSim Multicore Out-of-Order Simulator ***

Warmup Instructions: 10000000
Simulation Instructions: 100000000
Configuration: 2
Number of CPUs: 1
LLC sets: 2048
LLC ways: 16
Off-chip DRAM Channels: 1 Width: 64-bit Data Rate: 1600 MT/s

CPU 0 runs /datasets/cs240c-wi22-a00-public/data/Assignment2-gz/mcf_46B.trace.gz
CPU 0 L1D next line prefetcher
CPU 0 L2C IP-based stride prefetcher
config 2, num_core 1, llc_sets 2048
Heartbeat CPU 0 instructions: 1000002 cycles: 493396 heartbeat IPC: 2.02677 cumulative IPC: 2.02677 (Simulation time: 0 hr 0 min 42 sec) 
Heartbeat CPU 0 instructions: 2000002 cycles: 988925 heartbeat IPC: 2.01805 cumulative IPC: 2.0224 (Simulation time: 0 hr 1 min 21 sec) 
Heartbeat CPU 0 instructions: 3000003 cycles: 1515872 heartbeat IPC: 1.89773 cumulative IPC: 1.97906 (Simulation time: 0 hr 1 min 58 sec) 
Heartbeat CPU 0 instructions: 4000000 cycles: 2036239 heartbeat IPC: 1.92171 cumulative IPC: 1.96441 (Simulation time: 0 hr 2 min 32 sec) 
Heartbeat CPU 0 instructions: 5000000 cycles: 2529763 heartbeat IPC: 2.02624 cumulative IPC: 1.97647 (Simulation time: 0 hr 3 min 7 sec) 
Heartbeat CPU 0 instructions: 6000002 cycles: 3031660 heartbeat IPC: 1.99244 cumulative IPC: 1.97911 (Simulation time: 0 hr 3 min 44 sec) 
Heartbeat CPU 0 instructions: 7000001 cycles: 3574186 heartbeat IPC: 1.84323 cumulative IPC: 1.95849 (Simulation time: 0 hr 4 min 20 sec) 
Heartbeat CPU 0 instructions: 8000000 cycles: 4064321 heartbeat IPC: 2.04025 cumulative IPC: 1.96835 (Simulation time: 0 hr 4 min 56 sec) 
Heartbeat CPU 0 instructions: 9000001 cycles: 4547552 heartbeat IPC: 2.06941 cumulative IPC: 1.97909 (Simulation time: 0 hr 5 min 30 sec) 
Heartbeat CPU 0 instructions: 10000001 cycles: 5081806 heartbeat IPC: 1.87177 cumulative IPC: 1.9678 (Simulation time: 0 hr 6 min 6 sec) 

Warmup complete CPU 0 instructions: 10000001 cycles: 5081806 (Simulation time: 0 hr 6 min 6 sec) 

Heartbeat CPU 0 instructions: 11000002 cycles: 15539900 heartbeat IPC: 0.0956198 cumulative IPC: 0.0956198 (Simulation time: 0 hr 7 min 4 sec) 
Heartbeat CPU 0 instructions: 12000000 cycles: 20128700 heartbeat IPC: 0.217921 cumulative IPC: 0.132918 (Simulation time: 0 hr 7 min 51 sec) 
Heartbeat CPU 0 instructions: 13000000 cycles: 27606225 heartbeat IPC: 0.133734 cumulative IPC: 0.133189 (Simulation time: 0 hr 8 min 42 sec) 
Heartbeat CPU 0 instructions: 14000003 cycles: 41250142 heartbeat IPC: 0.073293 cumulative IPC: 0.110594 (Simulation time: 0 hr 9 min 48 sec) 
Heartbeat CPU 0 instructions: 15000000 cycles: 45736658 heartbeat IPC: 0.222889 cumulative IPC: 0.122987 (Simulation time: 0 hr 10 min 40 sec) 
Heartbeat CPU 0 instructions: 16000000 cycles: 50054251 heartbeat IPC: 0.231611 cumulative IPC: 0.133415 (Simulation time: 0 hr 11 min 31 sec) 
Heartbeat CPU 0 instructions: 17000002 cycles: 64597521 heartbeat IPC: 0.0687605 cumulative IPC: 0.117616 (Simulation time: 0 hr 12 min 38 sec) 
Heartbeat CPU 0 instructions: 18000001 cycles: 69939029 heartbeat IPC: 0.187213 cumulative IPC: 0.123348 (Simulation time: 0 hr 13 min 26 sec) 
Heartbeat CPU 0 instructions: 19000002 cycles: 74823176 heartbeat IPC: 0.204744 cumulative IPC: 0.129048 (Simulation time: 0 hr 14 min 12 sec) 
Heartbeat CPU 0 instructions: 20000000 cycles: 86312768 heartbeat IPC: 0.0870351 cumulative IPC: 0.123106 (Simulation time: 0 hr 15 min 13 sec) 
Heartbeat CPU 0 instructions: 21000002 cycles: 101473614 heartbeat IPC: 0.0659595 cumulative IPC: 0.114118 (Simulation time: 0 hr 16 min 25 sec) 
Heartbeat CPU 0 instructions: 22000002 cycles: 105878227 heartbeat IPC: 0.227035 cumulative IPC: 0.119052 (Simulation time: 0 hr 17 min 11 sec) 
Heartbeat CPU 0 instructions: 23000001 cycles: 110244740 heartbeat IPC: 0.229015 cumulative IPC: 0.123618 (Simulation time: 0 hr 17 min 55 sec) 
Heartbeat CPU 0 instructions: 24000000 cycles: 122731177 heartbeat IPC: 0.0800868 cumulative IPC: 0.118998 (Simulation time: 0 hr 18 min 55 sec) 
Heartbeat CPU 0 instructions: 25000002 cycles: 130120069 heartbeat IPC: 0.135339 cumulative IPC: 0.119963 (Simulation time: 0 hr 19 min 48 sec) 
Heartbeat CPU 0 instructions: 26000001 cycles: 134408535 heartbeat IPC: 0.233183 cumulative IPC: 0.123718 (Simulation time: 0 hr 20 min 34 sec) 
Heartbeat CPU 0 instructions: 27000000 cycles: 143894897 heartbeat IPC: 0.105414 cumulative IPC: 0.122467 (Simulation time: 0 hr 21 min 30 sec) 
Heartbeat CPU 0 instructions: 28000000 cycles: 154546743 heartbeat IPC: 0.0938804 cumulative IPC: 0.12043 (Simulation time: 0 hr 22 min 32 sec) 
Heartbeat CPU 0 instructions: 29000001 cycles: 159232082 heartbeat IPC: 0.213432 cumulative IPC: 0.123256 (Simulation time: 0 hr 23 min 15 sec) 
Heartbeat CPU 0 instructions: 30000000 cycles: 166550374 heartbeat IPC: 0.136644 cumulative IPC: 0.123863 (Simulation time: 0 hr 24 min 8 sec) 
Heartbeat CPU 0 instructions: 31000002 cycles: 179405206 heartbeat IPC: 0.0777919 cumulative IPC: 0.120466 (Simulation time: 0 hr 25 min 12 sec) 
Heartbeat CPU 0 instructions: 32000000 cycles: 184038664 heartbeat IPC: 0.215821 cumulative IPC: 0.122935 (Simulation time: 0 hr 25 min 58 sec) 
Heartbeat CPU 0 instructions: 33000000 cycles: 190468336 heartbeat IPC: 0.155529 cumulative IPC: 0.124065 (Simulation time: 0 hr 26 min 46 sec) 
Heartbeat CPU 0 instructions: 34000000 cycles: 204733694 heartbeat IPC: 0.0700999 cumulative IPC: 0.120209 (Simulation time: 0 hr 27 min 55 sec) 
Heartbeat CPU 0 instructions: 35000000 cycles: 210840044 heartbeat IPC: 0.163764 cumulative IPC: 0.121502 (Simulation time: 0 hr 28 min 43 sec) 
Heartbeat CPU 0 instructions: 36000000 cycles: 217243622 heartbeat IPC: 0.156163 cumulative IPC: 0.122548 (Simulation time: 0 hr 29 min 33 sec) 
Heartbeat CPU 0 instructions: 37000002 cycles: 227162982 heartbeat IPC: 0.100813 cumulative IPC: 0.121577 (Simulation time: 0 hr 30 min 33 sec) 
Heartbeat CPU 0 instructions: 38000001 cycles: 237541275 heartbeat IPC: 0.0963549 cumulative IPC: 0.120451 (Simulation time: 0 hr 31 min 35 sec) 
Heartbeat CPU 0 instructions: 39000000 cycles: 242062784 heartbeat IPC: 0.221165 cumulative IPC: 0.122373 (Simulation time: 0 hr 32 min 18 sec) 
Heartbeat CPU 0 instructions: 40000000 cycles: 248190088 heartbeat IPC: 0.163204 cumulative IPC: 0.123402 (Simulation time: 0 hr 33 min 5 sec) 
Heartbeat CPU 0 instructions: 41000000 cycles: 262202636 heartbeat IPC: 0.0713646 cumulative IPC: 0.120566 (Simulation time: 0 hr 34 min 9 sec) 
Heartbeat CPU 0 instructions: 42000001 cycles: 267263376 heartbeat IPC: 0.1976 cumulative IPC: 0.122053 (Simulation time: 0 hr 34 min 51 sec) 
Heartbeat CPU 0 instructions: 43000000 cycles: 271845060 heartbeat IPC: 0.21826 cumulative IPC: 0.123705 (Simulation time: 0 hr 35 min 34 sec) 
Heartbeat CPU 0 instructions: 44000000 cycles: 284749275 heartbeat IPC: 0.0774941 cumulative IPC: 0.121573 (Simulation time: 0 hr 36 min 39 sec) 
Heartbeat CPU 0 instructions: 45000001 cycles: 291983253 heartbeat IPC: 0.138237 cumulative IPC: 0.121993 (Simulation time: 0 hr 37 min 31 sec) 
Heartbeat CPU 0 instructions: 46000001 cycles: 296653644 heartbeat IPC: 0.214115 cumulative IPC: 0.123469 (Simulation time: 0 hr 38 min 16 sec) 
Heartbeat CPU 0 instructions: 47000002 cycles: 306023101 heartbeat IPC: 0.10673 cumulative IPC: 0.122948 (Simulation time: 0 hr 39 min 17 sec) 
Heartbeat CPU 0 instructions: 48000000 cycles: 317001955 heartbeat IPC: 0.091084 cumulative IPC: 0.121826 (Simulation time: 0 hr 40 min 16 sec) 
Heartbeat CPU 0 instructions: 49000000 cycles: 321940866 heartbeat IPC: 0.202474 cumulative IPC: 0.123083 (Simulation time: 0 hr 41 min 5 sec) 
Heartbeat CPU 0 instructions: 50000001 cycles: 328452323 heartbeat IPC: 0.153576 cumulative IPC: 0.123697 (Simulation time: 0 hr 41 min 54 sec) 
Heartbeat CPU 0 instructions: 51000001 cycles: 342211450 heartbeat IPC: 0.072679 cumulative IPC: 0.121615 (Simulation time: 0 hr 42 min 59 sec) 
Heartbeat CPU 0 instructions: 52000000 cycles: 347046726 heartbeat IPC: 0.206813 cumulative IPC: 0.12282 (Simulation time: 0 hr 43 min 42 sec) 
Heartbeat CPU 0 instructions: 53000000 cycles: 351692495 heartbeat IPC: 0.21525 cumulative IPC: 0.124058 (Simulation time: 0 hr 44 min 28 sec) 
Heartbeat CPU 0 instructions: 54000002 cycles: 366587561 heartbeat IPC: 0.0671365 cumulative IPC: 0.121713 (Simulation time: 0 hr 45 min 35 sec) 
Heartbeat CPU 0 instructions: 55000002 cycles: 371902723 heartbeat IPC: 0.188141 cumulative IPC: 0.122676 (Simulation time: 0 hr 46 min 20 sec) 
Heartbeat CPU 0 instructions: 56000000 cycles: 376646068 heartbeat IPC: 0.210821 cumulative IPC: 0.123801 (Simulation time: 0 hr 47 min 1 sec) 
Heartbeat CPU 0 instructions: 57000000 cycles: 389565845 heartbeat IPC: 0.0774007 cumulative IPC: 0.122242 (Simulation time: 0 hr 48 min 4 sec) 
Heartbeat CPU 0 instructions: 58000000 cycles: 396813485 heartbeat IPC: 0.137976 cumulative IPC: 0.122533 (Simulation time: 0 hr 48 min 58 sec) 
Heartbeat CPU 0 instructions: 59000002 cycles: 401442335 heartbeat IPC: 0.216037 cumulative IPC: 0.123625 (Simulation time: 0 hr 49 min 43 sec) 
Heartbeat CPU 0 instructions: 60000000 cycles: 412786603 heartbeat IPC: 0.0881501 cumulative IPC: 0.122638 (Simulation time: 0 hr 50 min 41 sec) 
Heartbeat CPU 0 instructions: 61000002 cycles: 421942922 heartbeat IPC: 0.109214 cumulative IPC: 0.122343 (Simulation time: 0 hr 51 min 36 sec) 
Heartbeat CPU 0 instructions: 62000001 cycles: 426568589 heartbeat IPC: 0.216185 cumulative IPC: 0.123373 (Simulation time: 0 hr 52 min 21 sec) 
Heartbeat CPU 0 instructions: 63000001 cycles: 436368367 heartbeat IPC: 0.102043 cumulative IPC: 0.122888 (Simulation time: 0 hr 53 min 15 sec) 
Heartbeat CPU 0 instructions: 64000000 cycles: 447265872 heartbeat IPC: 0.091764 cumulative IPC: 0.122121 (Simulation time: 0 hr 54 min 13 sec) 
Heartbeat CPU 0 instructions: 65000002 cycles: 452807430 heartbeat IPC: 0.180455 cumulative IPC: 0.122843 (Simulation time: 0 hr 54 min 55 sec) 
Heartbeat CPU 0 instructions: 66000000 cycles: 459093180 heartbeat IPC: 0.15909 cumulative IPC: 0.123345 (Simulation time: 0 hr 55 min 36 sec) 
Heartbeat CPU 0 instructions: 67000002 cycles: 474338468 heartbeat IPC: 0.0655942 cumulative IPC: 0.121469 (Simulation time: 0 hr 56 min 37 sec) 
Heartbeat CPU 0 instructions: 68000000 cycles: 479076974 heartbeat IPC: 0.211037 cumulative IPC: 0.122364 (Simulation time: 0 hr 57 min 15 sec) 
Heartbeat CPU 0 instructions: 69000000 cycles: 483614227 heartbeat IPC: 0.220398 cumulative IPC: 0.123294 (Simulation time: 0 hr 57 min 53 sec) 
Heartbeat CPU 0 instructions: 70000001 cycles: 497217422 heartbeat IPC: 0.0735122 cumulative IPC: 0.121918 (Simulation time: 0 hr 58 min 41 sec) 
Heartbeat CPU 0 instructions: 71000002 cycles: 505381639 heartbeat IPC: 0.122486 cumulative IPC: 0.121927 (Simulation time: 0 hr 59 min 17 sec) 
Heartbeat CPU 0 instructions: 72000000 cycles: 510490506 heartbeat IPC: 0.195738 cumulative IPC: 0.122673 (Simulation time: 0 hr 59 min 45 sec) 
Heartbeat CPU 0 instructions: 73000002 cycles: 519494613 heartbeat IPC: 0.111061 cumulative IPC: 0.12247 (Simulation time: 1 hr 0 min 19 sec) 
Heartbeat CPU 0 instructions: 74000001 cycles: 530939298 heartbeat IPC: 0.0873767 cumulative IPC: 0.121706 (Simulation time: 1 hr 0 min 56 sec) 
Heartbeat CPU 0 instructions: 75000001 cycles: 535770036 heartbeat IPC: 0.207008 cumulative IPC: 0.122482 (Simulation time: 1 hr 1 min 22 sec) 
Heartbeat CPU 0 instructions: 76000000 cycles: 542058789 heartbeat IPC: 0.159014 cumulative IPC: 0.12291 (Simulation time: 1 hr 1 min 49 sec) 
Heartbeat CPU 0 instructions: 77000001 cycles: 557112708 heartbeat IPC: 0.066428 cumulative IPC: 0.12137 (Simulation time: 1 hr 2 min 27 sec) 
Heartbeat CPU 0 instructions: 78000002 cycles: 562095833 heartbeat IPC: 0.200677 cumulative IPC: 0.12208 (Simulation time: 1 hr 2 min 53 sec) 
Heartbeat CPU 0 instructions: 79000001 cycles: 566789251 heartbeat IPC: 0.213064 cumulative IPC: 0.12284 (Simulation time: 1 hr 3 min 18 sec) 
Heartbeat CPU 0 instructions: 80000000 cycles: 579576415 heartbeat IPC: 0.0782033 cumulative IPC: 0.121846 (Simulation time: 1 hr 3 min 50 sec) 
Heartbeat CPU 0 instructions: 81000000 cycles: 586898216 heartbeat IPC: 0.136578 cumulative IPC: 0.122032 (Simulation time: 1 hr 4 min 16 sec) 
Heartbeat CPU 0 instructions: 82000000 cycles: 592042566 heartbeat IPC: 0.194388 cumulative IPC: 0.122666 (Simulation time: 1 hr 4 min 38 sec) 
Heartbeat CPU 0 instructions: 83000001 cycles: 601645995 heartbeat IPC: 0.10413 cumulative IPC: 0.122367 (Simulation time: 1 hr 5 min 3 sec) 
Heartbeat CPU 0 instructions: 84000000 cycles: 612563979 heartbeat IPC: 0.0915919 cumulative IPC: 0.121814 (Simulation time: 1 hr 5 min 27 sec) 
Heartbeat CPU 0 instructions: 85000001 cycles: 617265734 heartbeat IPC: 0.212687 cumulative IPC: 0.122512 (Simulation time: 1 hr 5 min 43 sec) 
Heartbeat CPU 0 instructions: 86000000 cycles: 624952140 heartbeat IPC: 0.1301 cumulative IPC: 0.122606 (Simulation time: 1 hr 5 min 58 sec) 
Heartbeat CPU 0 instructions: 87000000 cycles: 638994724 heartbeat IPC: 0.071212 cumulative IPC: 0.121468 (Simulation time: 1 hr 6 min 17 sec) 
Heartbeat CPU 0 instructions: 88000000 cycles: 645145006 heartbeat IPC: 0.162594 cumulative IPC: 0.121863 (Simulation time: 1 hr 6 min 30 sec) 
Heartbeat CPU 0 instructions: 89000000 cycles: 649820488 heartbeat IPC: 0.213882 cumulative IPC: 0.12253 (Simulation time: 1 hr 6 min 42 sec) 
Heartbeat CPU 0 instructions: 90000003 cycles: 661393618 heartbeat IPC: 0.0864073 cumulative IPC: 0.121893 (Simulation time: 1 hr 6 min 58 sec) 
Heartbeat CPU 0 instructions: 91000000 cycles: 669934446 heartbeat IPC: 0.117084 cumulative IPC: 0.121832 (Simulation time: 1 hr 7 min 9 sec) 
Heartbeat CPU 0 instructions: 92000000 cycles: 674524042 heartbeat IPC: 0.217884 cumulative IPC: 0.12249 (Simulation time: 1 hr 7 min 19 sec) 
Heartbeat CPU 0 instructions: 93000002 cycles: 683518773 heartbeat IPC: 0.111176 cumulative IPC: 0.12234 (Simulation time: 1 hr 7 min 30 sec) 
Heartbeat CPU 0 instructions: 94000002 cycles: 694477245 heartbeat IPC: 0.0912536 cumulative IPC: 0.121846 (Simulation time: 1 hr 7 min 42 sec) 
Heartbeat CPU 0 instructions: 95000001 cycles: 700472736 heartbeat IPC: 0.166792 cumulative IPC: 0.122233 (Simulation time: 1 hr 7 min 50 sec) 
Heartbeat CPU 0 instructions: 96000000 cycles: 706295787 heartbeat IPC: 0.171731 cumulative IPC: 0.122644 (Simulation time: 1 hr 7 min 57 sec) 
Heartbeat CPU 0 instructions: 97000000 cycles: 720700389 heartbeat IPC: 0.0694223 cumulative IPC: 0.121573 (Simulation time: 1 hr 8 min 9 sec) 
Heartbeat CPU 0 instructions: 98000002 cycles: 725591508 heartbeat IPC: 0.204453 cumulative IPC: 0.122136 (Simulation time: 1 hr 8 min 17 sec) 
Heartbeat CPU 0 instructions: 99000002 cycles: 730668006 heartbeat IPC: 0.196986 cumulative IPC: 0.122659 (Simulation time: 1 hr 8 min 24 sec) 
Heartbeat CPU 0 instructions: 100000000 cycles: 744191564 heartbeat IPC: 0.0739449 cumulative IPC: 0.121768 (Simulation time: 1 hr 8 min 33 sec) 
Heartbeat CPU 0 instructions: 101000000 cycles: 750908370 heartbeat IPC: 0.14888 cumulative IPC: 0.122012 (Simulation time: 1 hr 8 min 40 sec) 
Heartbeat CPU 0 instructions: 102000003 cycles: 755535177 heartbeat IPC: 0.216132 cumulative IPC: 0.122593 (Simulation time: 1 hr 8 min 47 sec) 
Heartbeat CPU 0 instructions: 103000003 cycles: 767249195 heartbeat IPC: 0.0853678 cumulative IPC: 0.12202 (Simulation time: 1 hr 8 min 55 sec) 
Heartbeat CPU 0 instructions: 104000000 cycles: 778127019 heartbeat IPC: 0.0919299 cumulative IPC: 0.121597 (Simulation time: 1 hr 9 min 3 sec) 
Heartbeat CPU 0 instructions: 105000000 cycles: 783267993 heartbeat IPC: 0.194516 cumulative IPC: 0.122079 (Simulation time: 1 hr 9 min 9 sec) 
Heartbeat CPU 0 instructions: 106000000 cycles: 787984208 heartbeat IPC: 0.212034 cumulative IPC: 0.122621 (Simulation time: 1 hr 9 min 15 sec) 
Heartbeat CPU 0 instructions: 107000002 cycles: 802726402 heartbeat IPC: 0.0678326 cumulative IPC: 0.121608 (Simulation time: 1 hr 9 min 24 sec) 
Heartbeat CPU 0 instructions: 108000000 cycles: 808173519 heartbeat IPC: 0.183583 cumulative IPC: 0.122028 (Simulation time: 1 hr 9 min 31 sec) 
Heartbeat CPU 0 instructions: 109000001 cycles: 812996041 heartbeat IPC: 0.207361 cumulative IPC: 0.122538 (Simulation time: 1 hr 9 min 36 sec) 
Heartbeat CPU 0 instructions: 110000002 cycles: 822670679 heartbeat IPC: 0.103363 cumulative IPC: 0.122311 (Simulation time: 1 hr 9 min 45 sec) 
Finished CPU 0 instructions: 100000001 cycles: 817588873 cummulative IPC: 0.122311 (Simulation time: 1 hr 9 min 45 sec) 

ChampSim completed all CPUs

Region of Interest Statistics

CPU 0 cummulative IPC: 0.122311 instructions: 100000001 cycles: 817588873
LLC TOTAL     ACCESS:   18782871  HIT:    7624479  MISS:   11158392
LLC LOAD      ACCESS:    8476725  HIT:    4205712  MISS:    4271013
LLC RFO       ACCESS:     206441  HIT:     130833  MISS:      75608
LLC PREFETCH  ACCESS:    7991440  HIT:    1953145  MISS:    6038295
LLC WRITEBACK ACCESS:    2108265  HIT:    1334789  MISS:     773476
