
*** ChampSim Multicore Out-of-Order Simulator ***

Warmup Instructions: 10000000
Simulation Instructions: 100000000
Configuration: 2
Number of CPUs: 1
LLC sets: 2048
LLC ways: 16
Off-chip DRAM Channels: 1 Width: 64-bit Data Rate: 1600 MT/s

CPU 0 runs /datasets/cs240c-wi22-a00-public/data/Assignment2-gz/milc_744B.trace.gz
CPU 0 L1D next line prefetcher
CPU 0 L2C IP-based stride prefetcher
config 2, num_core 1, llc_sets 2048
Heartbeat CPU 0 instructions: 1000000 cycles: 383656 heartbeat IPC: 2.6065 cumulative IPC: 2.6065 (Simulation time: 0 hr 0 min 36 sec) 
Heartbeat CPU 0 instructions: 2000001 cycles: 767293 heartbeat IPC: 2.60663 cumulative IPC: 2.60657 (Simulation time: 0 hr 1 min 5 sec) 
Heartbeat CPU 0 instructions: 3000001 cycles: 1150974 heartbeat IPC: 2.60633 cumulative IPC: 2.60649 (Simulation time: 0 hr 1 min 34 sec) 
Heartbeat CPU 0 instructions: 4000000 cycles: 1534617 heartbeat IPC: 2.60659 cumulative IPC: 2.60651 (Simulation time: 0 hr 2 min 3 sec) 
Heartbeat CPU 0 instructions: 5000001 cycles: 1918298 heartbeat IPC: 2.60633 cumulative IPC: 2.60648 (Simulation time: 0 hr 2 min 34 sec) 
Heartbeat CPU 0 instructions: 6000002 cycles: 2301951 heartbeat IPC: 2.60652 cumulative IPC: 2.60649 (Simulation time: 0 hr 3 min 4 sec) 
Heartbeat CPU 0 instructions: 7000002 cycles: 2685605 heartbeat IPC: 2.60652 cumulative IPC: 2.60649 (Simulation time: 0 hr 3 min 34 sec) 
Heartbeat CPU 0 instructions: 8000000 cycles: 3069239 heartbeat IPC: 2.60665 cumulative IPC: 2.60651 (Simulation time: 0 hr 4 min 7 sec) 
Heartbeat CPU 0 instructions: 9000003 cycles: 3452946 heartbeat IPC: 2.60616 cumulative IPC: 2.60647 (Simulation time: 0 hr 4 min 40 sec) 
Heartbeat CPU 0 instructions: 10000002 cycles: 3836611 heartbeat IPC: 2.60644 cumulative IPC: 2.60647 (Simulation time: 0 hr 5 min 6 sec) 

Warmup complete CPU 0 instructions: 10000002 cycles: 3836611 (Simulation time: 0 hr 5 min 6 sec) 

Heartbeat CPU 0 instructions: 11000003 cycles: 5247926 heartbeat IPC: 0.70856 cumulative IPC: 0.70856 (Simulation time: 0 hr 5 min 40 sec) 
Heartbeat CPU 0 instructions: 12000000 cycles: 6663342 heartbeat IPC: 0.706504 cumulative IPC: 0.70753 (Simulation time: 0 hr 6 min 13 sec) 
Heartbeat CPU 0 instructions: 13000003 cycles: 8082449 heartbeat IPC: 0.704671 cumulative IPC: 0.706575 (Simulation time: 0 hr 6 min 45 sec) 
Heartbeat CPU 0 instructions: 14000000 cycles: 9503125 heartbeat IPC: 0.703888 cumulative IPC: 0.705901 (Simulation time: 0 hr 7 min 22 sec) 
Heartbeat CPU 0 instructions: 15000000 cycles: 10918774 heartbeat IPC: 0.70639 cumulative IPC: 0.705999 (Simulation time: 0 hr 7 min 55 sec) 
Heartbeat CPU 0 instructions: 16000000 cycles: 12325921 heartbeat IPC: 0.710658 cumulative IPC: 0.706771 (Simulation time: 0 hr 8 min 29 sec) 
Heartbeat CPU 0 instructions: 17000001 cycles: 13744221 heartbeat IPC: 0.70507 cumulative IPC: 0.706528 (Simulation time: 0 hr 9 min 1 sec) 
Heartbeat CPU 0 instructions: 18000000 cycles: 15168196 heartbeat IPC: 0.702259 cumulative IPC: 0.705991 (Simulation time: 0 hr 9 min 31 sec) 
Heartbeat CPU 0 instructions: 19000003 cycles: 16581247 heartbeat IPC: 0.707691 cumulative IPC: 0.706179 (Simulation time: 0 hr 10 min 6 sec) 
Heartbeat CPU 0 instructions: 20000000 cycles: 17999340 heartbeat IPC: 0.70517 cumulative IPC: 0.706078 (Simulation time: 0 hr 10 min 39 sec) 
Heartbeat CPU 0 instructions: 21000003 cycles: 19418593 heartbeat IPC: 0.704598 cumulative IPC: 0.705944 (Simulation time: 0 hr 11 min 13 sec) 
Heartbeat CPU 0 instructions: 22000002 cycles: 20839986 heartbeat IPC: 0.703534 cumulative IPC: 0.705742 (Simulation time: 0 hr 11 min 47 sec) 
Heartbeat CPU 0 instructions: 23000000 cycles: 22258671 heartbeat IPC: 0.704877 cumulative IPC: 0.705676 (Simulation time: 0 hr 12 min 18 sec) 
Heartbeat CPU 0 instructions: 24000000 cycles: 23668416 heartbeat IPC: 0.709348 cumulative IPC: 0.705937 (Simulation time: 0 hr 12 min 51 sec) 
Heartbeat CPU 0 instructions: 25000002 cycles: 25087003 heartbeat IPC: 0.704928 cumulative IPC: 0.705869 (Simulation time: 0 hr 13 min 26 sec) 
Heartbeat CPU 0 instructions: 26000001 cycles: 26501722 heartbeat IPC: 0.706853 cumulative IPC: 0.705931 (Simulation time: 0 hr 14 min 0 sec) 
Heartbeat CPU 0 instructions: 27000001 cycles: 27918065 heartbeat IPC: 0.706044 cumulative IPC: 0.705937 (Simulation time: 0 hr 14 min 32 sec) 
Heartbeat CPU 0 instructions: 28000000 cycles: 29334695 heartbeat IPC: 0.7059 cumulative IPC: 0.705935 (Simulation time: 0 hr 15 min 6 sec) 
Heartbeat CPU 0 instructions: 29000000 cycles: 30748411 heartbeat IPC: 0.707356 cumulative IPC: 0.70601 (Simulation time: 0 hr 15 min 43 sec) 
Heartbeat CPU 0 instructions: 30000000 cycles: 32165472 heartbeat IPC: 0.705686 cumulative IPC: 0.705994 (Simulation time: 0 hr 16 min 18 sec) 
Heartbeat CPU 0 instructions: 31000003 cycles: 33583225 heartbeat IPC: 0.705344 cumulative IPC: 0.705963 (Simulation time: 0 hr 16 min 58 sec) 
Heartbeat CPU 0 instructions: 32000000 cycles: 34999462 heartbeat IPC: 0.706094 cumulative IPC: 0.705969 (Simulation time: 0 hr 17 min 35 sec) 
Heartbeat CPU 0 instructions: 33000001 cycles: 36416266 heartbeat IPC: 0.705815 cumulative IPC: 0.705962 (Simulation time: 0 hr 18 min 13 sec) 
Heartbeat CPU 0 instructions: 34000002 cycles: 37838956 heartbeat IPC: 0.702895 cumulative IPC: 0.705834 (Simulation time: 0 hr 18 min 45 sec) 
Heartbeat CPU 0 instructions: 35000000 cycles: 39260306 heartbeat IPC: 0.703555 cumulative IPC: 0.705742 (Simulation time: 0 hr 19 min 18 sec) 
Heartbeat CPU 0 instructions: 36000000 cycles: 40674730 heartbeat IPC: 0.707002 cumulative IPC: 0.705791 (Simulation time: 0 hr 19 min 56 sec) 
Heartbeat CPU 0 instructions: 37000001 cycles: 42101739 heartbeat IPC: 0.700767 cumulative IPC: 0.705603 (Simulation time: 0 hr 20 min 31 sec) 
Heartbeat CPU 0 instructions: 38000001 cycles: 43519665 heartbeat IPC: 0.705255 cumulative IPC: 0.705591 (Simulation time: 0 hr 21 min 7 sec) 
Heartbeat CPU 0 instructions: 39000001 cycles: 44939081 heartbeat IPC: 0.704515 cumulative IPC: 0.705554 (Simulation time: 0 hr 21 min 40 sec) 
Heartbeat CPU 0 instructions: 40000000 cycles: 46357365 heartbeat IPC: 0.705077 cumulative IPC: 0.705538 (Simulation time: 0 hr 22 min 11 sec) 
Heartbeat CPU 0 instructions: 41000000 cycles: 47771341 heartbeat IPC: 0.707226 cumulative IPC: 0.705592 (Simulation time: 0 hr 22 min 44 sec) 
Heartbeat CPU 0 instructions: 42000002 cycles: 49185416 heartbeat IPC: 0.707177 cumulative IPC: 0.705642 (Simulation time: 0 hr 23 min 18 sec) 
Heartbeat CPU 0 instructions: 43000003 cycles: 50600552 heartbeat IPC: 0.706647 cumulative IPC: 0.705672 (Simulation time: 0 hr 23 min 53 sec) 
Heartbeat CPU 0 instructions: 44000000 cycles: 52019770 heartbeat IPC: 0.704611 cumulative IPC: 0.705641 (Simulation time: 0 hr 24 min 29 sec) 
Heartbeat CPU 0 instructions: 45000000 cycles: 53437280 heartbeat IPC: 0.705462 cumulative IPC: 0.705636 (Simulation time: 0 hr 25 min 1 sec) 
Heartbeat CPU 0 instructions: 46000003 cycles: 54855396 heartbeat IPC: 0.705163 cumulative IPC: 0.705622 (Simulation time: 0 hr 25 min 37 sec) 
Heartbeat CPU 0 instructions: 47000002 cycles: 56272394 heartbeat IPC: 0.705717 cumulative IPC: 0.705625 (Simulation time: 0 hr 26 min 12 sec) 
Heartbeat CPU 0 instructions: 48000000 cycles: 57690691 heartbeat IPC: 0.70507 cumulative IPC: 0.70561 (Simulation time: 0 hr 26 min 46 sec) 
Heartbeat CPU 0 instructions: 49000001 cycles: 59107651 heartbeat IPC: 0.705737 cumulative IPC: 0.705614 (Simulation time: 0 hr 27 min 18 sec) 
Heartbeat CPU 0 instructions: 50000001 cycles: 60526834 heartbeat IPC: 0.704631 cumulative IPC: 0.705589 (Simulation time: 0 hr 27 min 52 sec) 
Heartbeat CPU 0 instructions: 51000001 cycles: 61947142 heartbeat IPC: 0.704073 cumulative IPC: 0.705552 (Simulation time: 0 hr 28 min 29 sec) 
Heartbeat CPU 0 instructions: 52000000 cycles: 63363395 heartbeat IPC: 0.706088 cumulative IPC: 0.705565 (Simulation time: 0 hr 29 min 2 sec) 
Heartbeat CPU 0 instructions: 53000000 cycles: 64781099 heartbeat IPC: 0.705366 cumulative IPC: 0.70556 (Simulation time: 0 hr 29 min 36 sec) 
Heartbeat CPU 0 instructions: 54000001 cycles: 66201895 heartbeat IPC: 0.703831 cumulative IPC: 0.705521 (Simulation time: 0 hr 30 min 9 sec) 
Heartbeat CPU 0 instructions: 55000003 cycles: 67621075 heartbeat IPC: 0.704634 cumulative IPC: 0.705501 (Simulation time: 0 hr 30 min 43 sec) 
Heartbeat CPU 0 instructions: 56000000 cycles: 69044390 heartbeat IPC: 0.702583 cumulative IPC: 0.705437 (Simulation time: 0 hr 31 min 18 sec) 
Heartbeat CPU 0 instructions: 57000000 cycles: 70461162 heartbeat IPC: 0.70583 cumulative IPC: 0.705446 (Simulation time: 0 hr 31 min 52 sec) 
Heartbeat CPU 0 instructions: 58000000 cycles: 71877176 heartbeat IPC: 0.706208 cumulative IPC: 0.705462 (Simulation time: 0 hr 32 min 23 sec) 
Heartbeat CPU 0 instructions: 59000002 cycles: 73292358 heartbeat IPC: 0.706624 cumulative IPC: 0.705485 (Simulation time: 0 hr 32 min 56 sec) 
Heartbeat CPU 0 instructions: 60000000 cycles: 74703444 heartbeat IPC: 0.708673 cumulative IPC: 0.705549 (Simulation time: 0 hr 33 min 27 sec) 
Heartbeat CPU 0 instructions: 61000001 cycles: 76119534 heartbeat IPC: 0.70617 cumulative IPC: 0.705561 (Simulation time: 0 hr 34 min 3 sec) 
Heartbeat CPU 0 instructions: 62000003 cycles: 77543675 heartbeat IPC: 0.702179 cumulative IPC: 0.705495 (Simulation time: 0 hr 34 min 38 sec) 
Heartbeat CPU 0 instructions: 63000001 cycles: 78964175 heartbeat IPC: 0.703976 cumulative IPC: 0.705467 (Simulation time: 0 hr 35 min 13 sec) 
Heartbeat CPU 0 instructions: 64000000 cycles: 80377567 heartbeat IPC: 0.707517 cumulative IPC: 0.705505 (Simulation time: 0 hr 35 min 47 sec) 
Heartbeat CPU 0 instructions: 65000002 cycles: 81796576 heartbeat IPC: 0.704719 cumulative IPC: 0.70549 (Simulation time: 0 hr 36 min 18 sec) 
Heartbeat CPU 0 instructions: 66000001 cycles: 83210279 heartbeat IPC: 0.707361 cumulative IPC: 0.705524 (Simulation time: 0 hr 36 min 49 sec) 
Heartbeat CPU 0 instructions: 67000003 cycles: 84629289 heartbeat IPC: 0.704718 cumulative IPC: 0.705509 (Simulation time: 0 hr 37 min 24 sec) 
Heartbeat CPU 0 instructions: 68000000 cycles: 86053630 heartbeat IPC: 0.702077 cumulative IPC: 0.70545 (Simulation time: 0 hr 38 min 4 sec) 
Heartbeat CPU 0 instructions: 69000003 cycles: 87472618 heartbeat IPC: 0.70473 cumulative IPC: 0.705438 (Simulation time: 0 hr 38 min 38 sec) 
Heartbeat CPU 0 instructions: 70000002 cycles: 88877129 heartbeat IPC: 0.711991 cumulative IPC: 0.705546 (Simulation time: 0 hr 39 min 10 sec) 
Heartbeat CPU 0 instructions: 71000002 cycles: 90282978 heartbeat IPC: 0.711314 cumulative IPC: 0.70564 (Simulation time: 0 hr 39 min 41 sec) 
Heartbeat CPU 0 instructions: 72000000 cycles: 91702843 heartbeat IPC: 0.704291 cumulative IPC: 0.705618 (Simulation time: 0 hr 40 min 16 sec) 
Heartbeat CPU 0 instructions: 73000002 cycles: 93096717 heartbeat IPC: 0.717426 cumulative IPC: 0.705802 (Simulation time: 0 hr 40 min 52 sec) 
Heartbeat CPU 0 instructions: 74000002 cycles: 94510764 heartbeat IPC: 0.70719 cumulative IPC: 0.705824 (Simulation time: 0 hr 41 min 25 sec) 
Heartbeat CPU 0 instructions: 75000001 cycles: 95923702 heartbeat IPC: 0.707744 cumulative IPC: 0.705854 (Simulation time: 0 hr 41 min 55 sec) 
Heartbeat CPU 0 instructions: 76000000 cycles: 97340793 heartbeat IPC: 0.70567 cumulative IPC: 0.705851 (Simulation time: 0 hr 42 min 26 sec) 
Heartbeat CPU 0 instructions: 77000002 cycles: 98757724 heartbeat IPC: 0.705752 cumulative IPC: 0.705849 (Simulation time: 0 hr 43 min 3 sec) 
Heartbeat CPU 0 instructions: 78000000 cycles: 100177076 heartbeat IPC: 0.704545 cumulative IPC: 0.70583 (Simulation time: 0 hr 43 min 35 sec) 
Heartbeat CPU 0 instructions: 79000000 cycles: 101596967 heartbeat IPC: 0.704279 cumulative IPC: 0.705808 (Simulation time: 0 hr 44 min 7 sec) 
Heartbeat CPU 0 instructions: 80000000 cycles: 103016926 heartbeat IPC: 0.704246 cumulative IPC: 0.705785 (Simulation time: 0 hr 44 min 44 sec) 
Heartbeat CPU 0 instructions: 81000003 cycles: 104432586 heartbeat IPC: 0.706386 cumulative IPC: 0.705794 (Simulation time: 0 hr 45 min 17 sec) 
Heartbeat CPU 0 instructions: 82000003 cycles: 105852260 heartbeat IPC: 0.704387 cumulative IPC: 0.705774 (Simulation time: 0 hr 45 min 48 sec) 
Heartbeat CPU 0 instructions: 83000002 cycles: 107267291 heartbeat IPC: 0.706698 cumulative IPC: 0.705787 (Simulation time: 0 hr 46 min 21 sec) 
Heartbeat CPU 0 instructions: 84000000 cycles: 108683316 heartbeat IPC: 0.706201 cumulative IPC: 0.705792 (Simulation time: 0 hr 46 min 53 sec) 
Heartbeat CPU 0 instructions: 85000000 cycles: 110105392 heartbeat IPC: 0.703197 cumulative IPC: 0.705758 (Simulation time: 0 hr 47 min 28 sec) 
Heartbeat CPU 0 instructions: 86000001 cycles: 111519002 heartbeat IPC: 0.707409 cumulative IPC: 0.705779 (Simulation time: 0 hr 48 min 6 sec) 
Heartbeat CPU 0 instructions: 87000001 cycles: 112941230 heartbeat IPC: 0.703122 cumulative IPC: 0.705745 (Simulation time: 0 hr 48 min 42 sec) 
Heartbeat CPU 0 instructions: 88000000 cycles: 114359791 heartbeat IPC: 0.704939 cumulative IPC: 0.705734 (Simulation time: 0 hr 49 min 17 sec) 
Heartbeat CPU 0 instructions: 89000001 cycles: 115772346 heartbeat IPC: 0.707938 cumulative IPC: 0.705762 (Simulation time: 0 hr 49 min 48 sec) 
Heartbeat CPU 0 instructions: 90000000 cycles: 117192827 heartbeat IPC: 0.703986 cumulative IPC: 0.70574 (Simulation time: 0 hr 50 min 18 sec) 
Heartbeat CPU 0 instructions: 91000001 cycles: 118611761 heartbeat IPC: 0.704755 cumulative IPC: 0.705728 (Simulation time: 0 hr 50 min 50 sec) 
Heartbeat CPU 0 instructions: 92000000 cycles: 122883077 heartbeat IPC: 0.23412 cumulative IPC: 0.688807 (Simulation time: 0 hr 51 min 55 sec) 
Heartbeat CPU 0 instructions: 93000000 cycles: 127245556 heartbeat IPC: 0.229227 cumulative IPC: 0.672561 (Simulation time: 0 hr 53 min 10 sec) 
Heartbeat CPU 0 instructions: 94000002 cycles: 130185971 heartbeat IPC: 0.340089 cumulative IPC: 0.664823 (Simulation time: 0 hr 53 min 59 sec) 
Heartbeat CPU 0 instructions: 95000000 cycles: 131412700 heartbeat IPC: 0.815174 cumulative IPC: 0.666269 (Simulation time: 0 hr 54 min 31 sec) 
Heartbeat CPU 0 instructions: 96000000 cycles: 132663011 heartbeat IPC: 0.799801 cumulative IPC: 0.667565 (Simulation time: 0 hr 54 min 58 sec) 
Heartbeat CPU 0 instructions: 97000002 cycles: 133916732 heartbeat IPC: 0.797627 cumulative IPC: 0.668819 (Simulation time: 0 hr 55 min 23 sec) 
Heartbeat CPU 0 instructions: 98000003 cycles: 135177945 heartbeat IPC: 0.792888 cumulative IPC: 0.67001 (Simulation time: 0 hr 55 min 48 sec) 
Heartbeat CPU 0 instructions: 99000000 cycles: 136439454 heartbeat IPC: 0.792699 cumulative IPC: 0.671177 (Simulation time: 0 hr 56 min 14 sec) 
Heartbeat CPU 0 instructions: 100000000 cycles: 137695425 heartbeat IPC: 0.796197 cumulative IPC: 0.67235 (Simulation time: 0 hr 56 min 39 sec) 
Heartbeat CPU 0 instructions: 101000001 cycles: 138952803 heartbeat IPC: 0.795307 cumulative IPC: 0.673494 (Simulation time: 0 hr 57 min 4 sec) 
Heartbeat CPU 0 instructions: 102000000 cycles: 140212685 heartbeat IPC: 0.793724 cumulative IPC: 0.674605 (Simulation time: 0 hr 57 min 28 sec) 
Heartbeat CPU 0 instructions: 103000002 cycles: 141468574 heartbeat IPC: 0.79625 cumulative IPC: 0.675715 (Simulation time: 0 hr 57 min 52 sec) 
Heartbeat CPU 0 instructions: 104000000 cycles: 142731992 heartbeat IPC: 0.791502 cumulative IPC: 0.676768 (Simulation time: 0 hr 58 min 13 sec) 
Heartbeat CPU 0 instructions: 105000003 cycles: 143988301 heartbeat IPC: 0.795985 cumulative IPC: 0.677837 (Simulation time: 0 hr 58 min 34 sec) 
Heartbeat CPU 0 instructions: 106000002 cycles: 145240008 heartbeat IPC: 0.798908 cumulative IPC: 0.678909 (Simulation time: 0 hr 58 min 54 sec) 
Heartbeat CPU 0 instructions: 107000002 cycles: 146498151 heartbeat IPC: 0.794822 cumulative IPC: 0.679931 (Simulation time: 0 hr 59 min 14 sec) 
Heartbeat CPU 0 instructions: 108000000 cycles: 147760626 heartbeat IPC: 0.792093 cumulative IPC: 0.680915 (Simulation time: 0 hr 59 min 33 sec) 
Heartbeat CPU 0 instructions: 109000001 cycles: 149014909 heartbeat IPC: 0.797269 cumulative IPC: 0.68192 (Simulation time: 0 hr 59 min 53 sec) 
Heartbeat CPU 0 instructions: 110000001 cycles: 150271382 heartbeat IPC: 0.795879 cumulative IPC: 0.682898 (Simulation time: 1 hr 0 min 12 sec) 
Finished CPU 0 instructions: 100000003 cycles: 146434772 cummulative IPC: 0.682898 (Simulation time: 1 hr 0 min 12 sec) 

ChampSim completed all CPUs

Region of Interest Statistics

CPU 0 cummulative IPC: 0.682898 instructions: 100000003 cycles: 146434772
LLC TOTAL     ACCESS:    2872436  HIT:       4007  MISS:    2868429
LLC LOAD      ACCESS:     739363  HIT:        706  MISS:     738657
LLC RFO       ACCESS:     423298  HIT:        356  MISS:     422942
LLC PREFETCH  ACCESS:    1009057  HIT:       2041  MISS:    1007016
LLC WRITEBACK ACCESS:     700718  HIT:        904  MISS:     699814
