
*** ChampSim Multicore Out-of-Order Simulator ***

Warmup Instructions: 10000000
Simulation Instructions: 100000000
Configuration: 2
Number of CPUs: 1
LLC sets: 2048
LLC ways: 16
Off-chip DRAM Channels: 1 Width: 64-bit Data Rate: 1600 MT/s

CPU 0 runs /datasets/cs240c-wi22-a00-public/data/Assignment2-gz/omnetpp_4B.trace.gz
CPU 0 L1D next line prefetcher
CPU 0 L2C IP-based stride prefetcher
config 2, num_core 1, llc_sets 2048
Heartbeat CPU 0 instructions: 1000001 cycles: 567000 heartbeat IPC: 1.76367 cumulative IPC: 1.76367 (Simulation time: 0 hr 0 min 33 sec) 
Heartbeat CPU 0 instructions: 2000001 cycles: 1135950 heartbeat IPC: 1.75762 cumulative IPC: 1.76064 (Simulation time: 0 hr 1 min 10 sec) 
Heartbeat CPU 0 instructions: 3000001 cycles: 1723472 heartbeat IPC: 1.70206 cumulative IPC: 1.74067 (Simulation time: 0 hr 1 min 43 sec) 
Heartbeat CPU 0 instructions: 4000000 cycles: 2293202 heartbeat IPC: 1.75522 cumulative IPC: 1.74429 (Simulation time: 0 hr 2 min 17 sec) 
Heartbeat CPU 0 instructions: 5000000 cycles: 2867827 heartbeat IPC: 1.74027 cumulative IPC: 1.74348 (Simulation time: 0 hr 2 min 48 sec) 
Heartbeat CPU 0 instructions: 6000000 cycles: 3444507 heartbeat IPC: 1.73406 cumulative IPC: 1.7419 (Simulation time: 0 hr 3 min 15 sec) 
Heartbeat CPU 0 instructions: 7000000 cycles: 4014361 heartbeat IPC: 1.75484 cumulative IPC: 1.74374 (Simulation time: 0 hr 3 min 45 sec) 
Heartbeat CPU 0 instructions: 8000000 cycles: 4568508 heartbeat IPC: 1.80458 cumulative IPC: 1.75112 (Simulation time: 0 hr 4 min 15 sec) 
Heartbeat CPU 0 instructions: 9000001 cycles: 5150851 heartbeat IPC: 1.7172 cumulative IPC: 1.74728 (Simulation time: 0 hr 4 min 44 sec) 
Heartbeat CPU 0 instructions: 10000000 cycles: 5704877 heartbeat IPC: 1.80497 cumulative IPC: 1.75289 (Simulation time: 0 hr 5 min 13 sec) 

Warmup complete CPU 0 instructions: 10000003 cycles: 5704878 (Simulation time: 0 hr 5 min 13 sec) 

Heartbeat CPU 0 instructions: 11000000 cycles: 8882170 heartbeat IPC: 0.314733 cumulative IPC: 0.314732 (Simulation time: 0 hr 5 min 48 sec) 
Heartbeat CPU 0 instructions: 12000000 cycles: 10036855 heartbeat IPC: 0.866037 cumulative IPC: 0.461682 (Simulation time: 0 hr 6 min 18 sec) 
Heartbeat CPU 0 instructions: 13000003 cycles: 11181798 heartbeat IPC: 0.873409 cumulative IPC: 0.547753 (Simulation time: 0 hr 6 min 45 sec) 
Heartbeat CPU 0 instructions: 14000000 cycles: 12301990 heartbeat IPC: 0.892701 cumulative IPC: 0.606325 (Simulation time: 0 hr 7 min 16 sec) 
Heartbeat CPU 0 instructions: 15000000 cycles: 13441195 heartbeat IPC: 0.877805 cumulative IPC: 0.646302 (Simulation time: 0 hr 7 min 43 sec) 
Heartbeat CPU 0 instructions: 16000000 cycles: 16261757 heartbeat IPC: 0.354539 cumulative IPC: 0.568349 (Simulation time: 0 hr 8 min 17 sec) 
Heartbeat CPU 0 instructions: 17000003 cycles: 19117183 heartbeat IPC: 0.350212 cumulative IPC: 0.521909 (Simulation time: 0 hr 8 min 49 sec) 
Heartbeat CPU 0 instructions: 18000002 cycles: 21862572 heartbeat IPC: 0.364247 cumulative IPC: 0.49512 (Simulation time: 0 hr 9 min 25 sec) 
Heartbeat CPU 0 instructions: 19000002 cycles: 24649137 heartbeat IPC: 0.358865 cumulative IPC: 0.475078 (Simulation time: 0 hr 9 min 57 sec) 
Heartbeat CPU 0 instructions: 20000000 cycles: 27971004 heartbeat IPC: 0.301035 cumulative IPC: 0.449113 (Simulation time: 0 hr 10 min 29 sec) 
Heartbeat CPU 0 instructions: 21000000 cycles: 31277828 heartbeat IPC: 0.302405 cumulative IPC: 0.430142 (Simulation time: 0 hr 11 min 4 sec) 
Heartbeat CPU 0 instructions: 22000001 cycles: 34448852 heartbeat IPC: 0.315356 cumulative IPC: 0.417479 (Simulation time: 0 hr 11 min 40 sec) 
Heartbeat CPU 0 instructions: 23000000 cycles: 37288108 heartbeat IPC: 0.352205 cumulative IPC: 0.411611 (Simulation time: 0 hr 12 min 18 sec) 
Heartbeat CPU 0 instructions: 24000000 cycles: 40049562 heartbeat IPC: 0.362128 cumulative IPC: 0.407632 (Simulation time: 0 hr 12 min 50 sec) 
Heartbeat CPU 0 instructions: 25000000 cycles: 42812372 heartbeat IPC: 0.36195 cumulative IPC: 0.404231 (Simulation time: 0 hr 13 min 24 sec) 
Heartbeat CPU 0 instructions: 26000002 cycles: 45562869 heartbeat IPC: 0.363571 cumulative IPC: 0.401425 (Simulation time: 0 hr 14 min 0 sec) 
Heartbeat CPU 0 instructions: 27000001 cycles: 48363124 heartbeat IPC: 0.35711 cumulative IPC: 0.398516 (Simulation time: 0 hr 14 min 34 sec) 
Heartbeat CPU 0 instructions: 28000000 cycles: 51110349 heartbeat IPC: 0.364003 cumulative IPC: 0.396428 (Simulation time: 0 hr 15 min 8 sec) 
Heartbeat CPU 0 instructions: 29000001 cycles: 53946960 heartbeat IPC: 0.352534 cumulative IPC: 0.393847 (Simulation time: 0 hr 15 min 44 sec) 
Heartbeat CPU 0 instructions: 30000000 cycles: 56706044 heartbeat IPC: 0.362439 cumulative IPC: 0.392148 (Simulation time: 0 hr 16 min 16 sec) 
Heartbeat CPU 0 instructions: 31000002 cycles: 59453043 heartbeat IPC: 0.364034 cumulative IPC: 0.390711 (Simulation time: 0 hr 16 min 49 sec) 
Heartbeat CPU 0 instructions: 32000000 cycles: 62252457 heartbeat IPC: 0.357217 cumulative IPC: 0.389053 (Simulation time: 0 hr 17 min 26 sec) 
Heartbeat CPU 0 instructions: 33000000 cycles: 65408370 heartbeat IPC: 0.316866 cumulative IPC: 0.385237 (Simulation time: 0 hr 18 min 4 sec) 
Heartbeat CPU 0 instructions: 34000001 cycles: 68710291 heartbeat IPC: 0.302854 cumulative IPC: 0.38092 (Simulation time: 0 hr 18 min 41 sec) 
Heartbeat CPU 0 instructions: 35000001 cycles: 71729123 heartbeat IPC: 0.331254 cumulative IPC: 0.378649 (Simulation time: 0 hr 19 min 14 sec) 
Heartbeat CPU 0 instructions: 36000000 cycles: 74959434 heartbeat IPC: 0.309567 cumulative IPC: 0.375427 (Simulation time: 0 hr 19 min 50 sec) 
Heartbeat CPU 0 instructions: 37000001 cycles: 77732818 heartbeat IPC: 0.360571 cumulative IPC: 0.374855 (Simulation time: 0 hr 20 min 20 sec) 
Heartbeat CPU 0 instructions: 38000001 cycles: 80908397 heartbeat IPC: 0.314903 cumulative IPC: 0.372323 (Simulation time: 0 hr 20 min 54 sec) 
Heartbeat CPU 0 instructions: 39000001 cycles: 83413912 heartbeat IPC: 0.39912 cumulative IPC: 0.373187 (Simulation time: 0 hr 21 min 26 sec) 
Heartbeat CPU 0 instructions: 40000000 cycles: 84535902 heartbeat IPC: 0.891273 cumulative IPC: 0.380561 (Simulation time: 0 hr 21 min 52 sec) 
Heartbeat CPU 0 instructions: 41000001 cycles: 85662163 heartbeat IPC: 0.887895 cumulative IPC: 0.387707 (Simulation time: 0 hr 22 min 17 sec) 
Heartbeat CPU 0 instructions: 42000001 cycles: 86796296 heartbeat IPC: 0.881731 cumulative IPC: 0.394616 (Simulation time: 0 hr 22 min 45 sec) 
Heartbeat CPU 0 instructions: 43000002 cycles: 88012776 heartbeat IPC: 0.822045 cumulative IPC: 0.400934 (Simulation time: 0 hr 23 min 11 sec) 
Heartbeat CPU 0 instructions: 44000000 cycles: 90858456 heartbeat IPC: 0.351409 cumulative IPC: 0.399279 (Simulation time: 0 hr 23 min 41 sec) 
Heartbeat CPU 0 instructions: 45000000 cycles: 93728141 heartbeat IPC: 0.34847 cumulative IPC: 0.397622 (Simulation time: 0 hr 24 min 16 sec) 
Heartbeat CPU 0 instructions: 46000000 cycles: 97067572 heartbeat IPC: 0.299452 cumulative IPC: 0.394034 (Simulation time: 0 hr 24 min 48 sec) 
Heartbeat CPU 0 instructions: 47000000 cycles: 100384468 heartbeat IPC: 0.301487 cumulative IPC: 0.390792 (Simulation time: 0 hr 25 min 23 sec) 
Heartbeat CPU 0 instructions: 48000000 cycles: 103523854 heartbeat IPC: 0.318534 cumulative IPC: 0.388473 (Simulation time: 0 hr 26 min 1 sec) 
Heartbeat CPU 0 instructions: 49000000 cycles: 106396647 heartbeat IPC: 0.348093 cumulative IPC: 0.387321 (Simulation time: 0 hr 26 min 37 sec) 
Heartbeat CPU 0 instructions: 50000001 cycles: 109171568 heartbeat IPC: 0.360371 cumulative IPC: 0.386598 (Simulation time: 0 hr 27 min 8 sec) 
Heartbeat CPU 0 instructions: 51000003 cycles: 111956528 heartbeat IPC: 0.359072 cumulative IPC: 0.385876 (Simulation time: 0 hr 27 min 40 sec) 
Heartbeat CPU 0 instructions: 52000000 cycles: 114725570 heartbeat IPC: 0.361135 cumulative IPC: 0.385248 (Simulation time: 0 hr 28 min 12 sec) 
Heartbeat CPU 0 instructions: 53000003 cycles: 117506484 heartbeat IPC: 0.359595 cumulative IPC: 0.38461 (Simulation time: 0 hr 28 min 42 sec) 
Heartbeat CPU 0 instructions: 54000001 cycles: 120260899 heartbeat IPC: 0.363053 cumulative IPC: 0.384092 (Simulation time: 0 hr 29 min 13 sec) 
Heartbeat CPU 0 instructions: 55000001 cycles: 123175451 heartbeat IPC: 0.343106 cumulative IPC: 0.383075 (Simulation time: 0 hr 29 min 45 sec) 
Heartbeat CPU 0 instructions: 56000000 cycles: 125957678 heartbeat IPC: 0.359424 cumulative IPC: 0.382527 (Simulation time: 0 hr 30 min 18 sec) 
Heartbeat CPU 0 instructions: 57000003 cycles: 128719674 heartbeat IPC: 0.362058 cumulative IPC: 0.382068 (Simulation time: 0 hr 30 min 50 sec) 
Heartbeat CPU 0 instructions: 58000001 cycles: 131692965 heartbeat IPC: 0.336327 cumulative IPC: 0.380988 (Simulation time: 0 hr 31 min 23 sec) 
Heartbeat CPU 0 instructions: 59000001 cycles: 134974868 heartbeat IPC: 0.304701 cumulative IPC: 0.379052 (Simulation time: 0 hr 31 min 58 sec) 
Heartbeat CPU 0 instructions: 60000000 cycles: 137946489 heartbeat IPC: 0.336516 cumulative IPC: 0.378096 (Simulation time: 0 hr 32 min 33 sec) 
Heartbeat CPU 0 instructions: 61000001 cycles: 140994513 heartbeat IPC: 0.328082 cumulative IPC: 0.376969 (Simulation time: 0 hr 33 min 7 sec) 
Heartbeat CPU 0 instructions: 62000000 cycles: 144305729 heartbeat IPC: 0.302004 cumulative IPC: 0.375178 (Simulation time: 0 hr 33 min 43 sec) 
Heartbeat CPU 0 instructions: 63000001 cycles: 147122319 heartbeat IPC: 0.35504 cumulative IPC: 0.374777 (Simulation time: 0 hr 34 min 15 sec) 
Heartbeat CPU 0 instructions: 64000000 cycles: 149922059 heartbeat IPC: 0.357176 cumulative IPC: 0.374435 (Simulation time: 0 hr 34 min 48 sec) 
Heartbeat CPU 0 instructions: 65000001 cycles: 152708680 heartbeat IPC: 0.358858 cumulative IPC: 0.37414 (Simulation time: 0 hr 35 min 18 sec) 
Heartbeat CPU 0 instructions: 66000002 cycles: 156836080 heartbeat IPC: 0.242284 cumulative IPC: 0.370539 (Simulation time: 0 hr 35 min 59 sec) 
Heartbeat CPU 0 instructions: 67000001 cycles: 158485340 heartbeat IPC: 0.606332 cumulative IPC: 0.373084 (Simulation time: 0 hr 36 min 29 sec) 
Heartbeat CPU 0 instructions: 68000000 cycles: 159609159 heartbeat IPC: 0.889822 cumulative IPC: 0.376858 (Simulation time: 0 hr 36 min 59 sec) 
Heartbeat CPU 0 instructions: 69000003 cycles: 160751304 heartbeat IPC: 0.875548 cumulative IPC: 0.380531 (Simulation time: 0 hr 37 min 24 sec) 
Heartbeat CPU 0 instructions: 70000000 cycles: 161871737 heartbeat IPC: 0.892509 cumulative IPC: 0.384204 (Simulation time: 0 hr 37 min 51 sec) 
Heartbeat CPU 0 instructions: 71000001 cycles: 163046670 heartbeat IPC: 0.851113 cumulative IPC: 0.387691 (Simulation time: 0 hr 38 min 18 sec) 
Heartbeat CPU 0 instructions: 72000000 cycles: 166359295 heartbeat IPC: 0.301875 cumulative IPC: 0.385922 (Simulation time: 0 hr 38 min 59 sec) 
Heartbeat CPU 0 instructions: 73000000 cycles: 169743052 heartbeat IPC: 0.295529 cumulative IPC: 0.384057 (Simulation time: 0 hr 39 min 35 sec) 
Heartbeat CPU 0 instructions: 74000001 cycles: 173062190 heartbeat IPC: 0.301283 cumulative IPC: 0.382415 (Simulation time: 0 hr 40 min 10 sec) 
Heartbeat CPU 0 instructions: 75000001 cycles: 175949794 heartbeat IPC: 0.346308 cumulative IPC: 0.381803 (Simulation time: 0 hr 40 min 44 sec) 
Heartbeat CPU 0 instructions: 76000000 cycles: 178715855 heartbeat IPC: 0.361525 cumulative IPC: 0.381479 (Simulation time: 0 hr 41 min 20 sec) 
Heartbeat CPU 0 instructions: 77000000 cycles: 181513604 heartbeat IPC: 0.35743 cumulative IPC: 0.381096 (Simulation time: 0 hr 41 min 53 sec) 
Heartbeat CPU 0 instructions: 78000001 cycles: 184308749 heartbeat IPC: 0.357764 cumulative IPC: 0.380731 (Simulation time: 0 hr 42 min 24 sec) 
Heartbeat CPU 0 instructions: 79000001 cycles: 187106692 heartbeat IPC: 0.357405 cumulative IPC: 0.380371 (Simulation time: 0 hr 43 min 3 sec) 
Heartbeat CPU 0 instructions: 80000000 cycles: 189880336 heartbeat IPC: 0.360536 cumulative IPC: 0.380072 (Simulation time: 0 hr 43 min 33 sec) 
Heartbeat CPU 0 instructions: 81000002 cycles: 192738135 heartbeat IPC: 0.34992 cumulative IPC: 0.379612 (Simulation time: 0 hr 44 min 9 sec) 
Heartbeat CPU 0 instructions: 82000001 cycles: 195514339 heartbeat IPC: 0.360204 cumulative IPC: 0.379328 (Simulation time: 0 hr 44 min 42 sec) 
Heartbeat CPU 0 instructions: 83000002 cycles: 198331739 heartbeat IPC: 0.354938 cumulative IPC: 0.378971 (Simulation time: 0 hr 45 min 13 sec) 
Heartbeat CPU 0 instructions: 84000000 cycles: 201182431 heartbeat IPC: 0.350791 cumulative IPC: 0.37856 (Simulation time: 0 hr 45 min 43 sec) 
Heartbeat CPU 0 instructions: 85000002 cycles: 204481189 heartbeat IPC: 0.303145 cumulative IPC: 0.377309 (Simulation time: 0 hr 46 min 18 sec) 
Heartbeat CPU 0 instructions: 86000002 cycles: 207775852 heartbeat IPC: 0.303521 cumulative IPC: 0.376105 (Simulation time: 0 hr 46 min 51 sec) 
Heartbeat CPU 0 instructions: 87000000 cycles: 210789495 heartbeat IPC: 0.331824 cumulative IPC: 0.375455 (Simulation time: 0 hr 47 min 23 sec) 
Heartbeat CPU 0 instructions: 88000000 cycles: 213779081 heartbeat IPC: 0.334494 cumulative IPC: 0.374866 (Simulation time: 0 hr 48 min 0 sec) 
Heartbeat CPU 0 instructions: 89000002 cycles: 216846758 heartbeat IPC: 0.32598 cumulative IPC: 0.374156 (Simulation time: 0 hr 48 min 34 sec) 
Heartbeat CPU 0 instructions: 90000001 cycles: 219627529 heartbeat IPC: 0.359612 cumulative IPC: 0.373967 (Simulation time: 0 hr 49 min 8 sec) 
Heartbeat CPU 0 instructions: 91000001 cycles: 222437956 heartbeat IPC: 0.355818 cumulative IPC: 0.373732 (Simulation time: 0 hr 49 min 45 sec) 
Heartbeat CPU 0 instructions: 92000000 cycles: 225343606 heartbeat IPC: 0.344157 cumulative IPC: 0.37334 (Simulation time: 0 hr 50 min 20 sec) 
Heartbeat CPU 0 instructions: 93000000 cycles: 228154153 heartbeat IPC: 0.355803 cumulative IPC: 0.373119 (Simulation time: 0 hr 50 min 49 sec) 
Heartbeat CPU 0 instructions: 94000000 cycles: 232661243 heartbeat IPC: 0.221873 cumulative IPC: 0.370115 (Simulation time: 0 hr 51 min 27 sec) 
Heartbeat CPU 0 instructions: 95000000 cycles: 233843017 heartbeat IPC: 0.846186 cumulative IPC: 0.372581 (Simulation time: 0 hr 51 min 54 sec) 
Heartbeat CPU 0 instructions: 96000000 cycles: 234986020 heartbeat IPC: 0.874888 cumulative IPC: 0.375085 (Simulation time: 0 hr 52 min 20 sec) 
Heartbeat CPU 0 instructions: 97000002 cycles: 236104693 heartbeat IPC: 0.893918 cumulative IPC: 0.377604 (Simulation time: 0 hr 52 min 46 sec) 
Heartbeat CPU 0 instructions: 98000001 cycles: 237246640 heartbeat IPC: 0.875696 cumulative IPC: 0.380061 (Simulation time: 0 hr 53 min 12 sec) 
Heartbeat CPU 0 instructions: 99000002 cycles: 239124985 heartbeat IPC: 0.532384 cumulative IPC: 0.381287 (Simulation time: 0 hr 53 min 38 sec) 
Heartbeat CPU 0 instructions: 100000000 cycles: 242504740 heartbeat IPC: 0.295879 cumulative IPC: 0.380068 (Simulation time: 0 hr 54 min 8 sec) 
Heartbeat CPU 0 instructions: 101000002 cycles: 245582719 heartbeat IPC: 0.324889 cumulative IPC: 0.37936 (Simulation time: 0 hr 54 min 36 sec) 
Heartbeat CPU 0 instructions: 102000001 cycles: 248550902 heartbeat IPC: 0.336906 cumulative IPC: 0.378841 (Simulation time: 0 hr 55 min 7 sec) 
Heartbeat CPU 0 instructions: 103000000 cycles: 251346600 heartbeat IPC: 0.357692 cumulative IPC: 0.3786 (Simulation time: 0 hr 55 min 33 sec) 
Heartbeat CPU 0 instructions: 104000000 cycles: 254160473 heartbeat IPC: 0.355382 cumulative IPC: 0.378337 (Simulation time: 0 hr 56 min 0 sec) 
Heartbeat CPU 0 instructions: 105000001 cycles: 256952590 heartbeat IPC: 0.358152 cumulative IPC: 0.378113 (Simulation time: 0 hr 56 min 27 sec) 
Heartbeat CPU 0 instructions: 106000000 cycles: 259859872 heartbeat IPC: 0.343964 cumulative IPC: 0.377722 (Simulation time: 0 hr 56 min 57 sec) 
Heartbeat CPU 0 instructions: 107000002 cycles: 262664801 heartbeat IPC: 0.356516 cumulative IPC: 0.377491 (Simulation time: 0 hr 57 min 20 sec) 
Heartbeat CPU 0 instructions: 108000000 cycles: 265456854 heartbeat IPC: 0.358159 cumulative IPC: 0.377283 (Simulation time: 0 hr 57 min 46 sec) 
Heartbeat CPU 0 instructions: 109000002 cycles: 268242133 heartbeat IPC: 0.359031 cumulative IPC: 0.377089 (Simulation time: 0 hr 58 min 8 sec) 
Heartbeat CPU 0 instructions: 110000001 cycles: 271072292 heartbeat IPC: 0.353337 cumulative IPC: 0.376836 (Simulation time: 0 hr 58 min 29 sec) 
Finished CPU 0 instructions: 100000001 cycles: 265367416 cummulative IPC: 0.376836 (Simulation time: 0 hr 58 min 29 sec) 

ChampSim completed all CPUs

Region of Interest Statistics

CPU 0 cummulative IPC: 0.376836 instructions: 100000001 cycles: 265367416
LLC TOTAL     ACCESS:    4666775  HIT:    2438168  MISS:    2228607
LLC LOAD      ACCESS:    2182175  HIT:    2079829  MISS:     102346
LLC RFO       ACCESS:      24952  HIT:      11987  MISS:      12965
LLC PREFETCH  ACCESS:    2379279  HIT:     314071  MISS:    2065208
LLC WRITEBACK ACCESS:      80369  HIT:      32281  MISS:      48088
