
*** ChampSim Multicore Out-of-Order Simulator ***

Warmup Instructions: 10000000
Simulation Instructions: 100000000
Configuration: 2
Number of CPUs: 1
LLC sets: 2048
LLC ways: 16
Off-chip DRAM Channels: 1 Width: 64-bit Data Rate: 1600 MT/s

CPU 0 runs /datasets/cs240c-wi22-a00-public/data/Assignment2-gz/libquantum_1735B.trace.gz
CPU 0 L1D next line prefetcher
CPU 0 L2C IP-based stride prefetcher
config 2, num_core 1, llc_sets 2048
Heartbeat CPU 0 instructions: 1000001 cycles: 333341 heartbeat IPC: 2.99993 cumulative IPC: 2.99993 (Simulation time: 0 hr 0 min 28 sec) 
Heartbeat CPU 0 instructions: 2000000 cycles: 666674 heartbeat IPC: 3 cumulative IPC: 2.99997 (Simulation time: 0 hr 0 min 44 sec) 
Heartbeat CPU 0 instructions: 3000000 cycles: 989045 heartbeat IPC: 3.10202 cumulative IPC: 3.03323 (Simulation time: 0 hr 1 min 1 sec) 
Heartbeat CPU 0 instructions: 4000000 cycles: 1290770 heartbeat IPC: 3.31428 cumulative IPC: 3.09893 (Simulation time: 0 hr 1 min 19 sec) 
Heartbeat CPU 0 instructions: 5000001 cycles: 1592495 heartbeat IPC: 3.31428 cumulative IPC: 3.13973 (Simulation time: 0 hr 1 min 35 sec) 
Heartbeat CPU 0 instructions: 6000001 cycles: 1894219 heartbeat IPC: 3.31429 cumulative IPC: 3.16753 (Simulation time: 0 hr 1 min 52 sec) 
Heartbeat CPU 0 instructions: 7000002 cycles: 2195942 heartbeat IPC: 3.3143 cumulative IPC: 3.1877 (Simulation time: 0 hr 2 min 9 sec) 
Heartbeat CPU 0 instructions: 8000000 cycles: 2501897 heartbeat IPC: 3.26845 cumulative IPC: 3.19757 (Simulation time: 0 hr 2 min 26 sec) 
Heartbeat CPU 0 instructions: 9000000 cycles: 2835230 heartbeat IPC: 3 cumulative IPC: 3.17435 (Simulation time: 0 hr 2 min 42 sec) 
Heartbeat CPU 0 instructions: 10000002 cycles: 3168564 heartbeat IPC: 3 cumulative IPC: 3.156 (Simulation time: 0 hr 2 min 59 sec) 

Warmup complete CPU 0 instructions: 10000002 cycles: 3168564 (Simulation time: 0 hr 2 min 59 sec) 

Heartbeat CPU 0 instructions: 11000001 cycles: 4593870 heartbeat IPC: 0.701603 cumulative IPC: 0.701603 (Simulation time: 0 hr 3 min 29 sec) 
Heartbeat CPU 0 instructions: 12000000 cycles: 6018722 heartbeat IPC: 0.701827 cumulative IPC: 0.701715 (Simulation time: 0 hr 3 min 57 sec) 
Heartbeat CPU 0 instructions: 13000001 cycles: 7838242 heartbeat IPC: 0.549596 cumulative IPC: 0.642442 (Simulation time: 0 hr 4 min 24 sec) 
Heartbeat CPU 0 instructions: 14000000 cycles: 10327677 heartbeat IPC: 0.401697 cumulative IPC: 0.558728 (Simulation time: 0 hr 4 min 46 sec) 
Heartbeat CPU 0 instructions: 15000000 cycles: 12810343 heartbeat IPC: 0.402793 cumulative IPC: 0.518576 (Simulation time: 0 hr 5 min 8 sec) 
Heartbeat CPU 0 instructions: 16000000 cycles: 15283335 heartbeat IPC: 0.404368 cumulative IPC: 0.495263 (Simulation time: 0 hr 5 min 31 sec) 
Heartbeat CPU 0 instructions: 17000002 cycles: 17768714 heartbeat IPC: 0.402354 cumulative IPC: 0.479447 (Simulation time: 0 hr 5 min 55 sec) 
Heartbeat CPU 0 instructions: 18000001 cycles: 19936852 heartbeat IPC: 0.461225 cumulative IPC: 0.477091 (Simulation time: 0 hr 6 min 21 sec) 
Heartbeat CPU 0 instructions: 19000000 cycles: 21436433 heartbeat IPC: 0.666852 cumulative IPC: 0.492668 (Simulation time: 0 hr 6 min 52 sec) 
Heartbeat CPU 0 instructions: 20000000 cycles: 22764220 heartbeat IPC: 0.753133 cumulative IPC: 0.510317 (Simulation time: 0 hr 7 min 19 sec) 
Heartbeat CPU 0 instructions: 21000001 cycles: 24288053 heartbeat IPC: 0.656241 cumulative IPC: 0.520846 (Simulation time: 0 hr 7 min 48 sec) 
Heartbeat CPU 0 instructions: 22000000 cycles: 25787559 heartbeat IPC: 0.666886 cumulative IPC: 0.530527 (Simulation time: 0 hr 8 min 20 sec) 
Heartbeat CPU 0 instructions: 23000000 cycles: 27976263 heartbeat IPC: 0.456891 cumulative IPC: 0.524031 (Simulation time: 0 hr 8 min 46 sec) 
Heartbeat CPU 0 instructions: 24000000 cycles: 30640874 heartbeat IPC: 0.375289 cumulative IPC: 0.509604 (Simulation time: 0 hr 9 min 11 sec) 
Heartbeat CPU 0 instructions: 25000000 cycles: 33309746 heartbeat IPC: 0.37469 cumulative IPC: 0.497658 (Simulation time: 0 hr 9 min 38 sec) 
Heartbeat CPU 0 instructions: 26000000 cycles: 35958498 heartbeat IPC: 0.377536 cumulative IPC: 0.487955 (Simulation time: 0 hr 10 min 4 sec) 
Heartbeat CPU 0 instructions: 27000001 cycles: 38624821 heartbeat IPC: 0.375049 cumulative IPC: 0.479464 (Simulation time: 0 hr 10 min 26 sec) 
Heartbeat CPU 0 instructions: 28000000 cycles: 40593643 heartbeat IPC: 0.507917 cumulative IPC: 0.480961 (Simulation time: 0 hr 10 min 54 sec) 
Heartbeat CPU 0 instructions: 29000000 cycles: 42015585 heartbeat IPC: 0.703264 cumulative IPC: 0.489098 (Simulation time: 0 hr 11 min 23 sec) 
Heartbeat CPU 0 instructions: 30000001 cycles: 43437406 heartbeat IPC: 0.703324 cumulative IPC: 0.496662 (Simulation time: 0 hr 11 min 52 sec) 
Heartbeat CPU 0 instructions: 31000000 cycles: 44859301 heartbeat IPC: 0.703286 cumulative IPC: 0.503709 (Simulation time: 0 hr 12 min 21 sec) 
Heartbeat CPU 0 instructions: 32000000 cycles: 46281117 heartbeat IPC: 0.703326 cumulative IPC: 0.510292 (Simulation time: 0 hr 12 min 49 sec) 
Heartbeat CPU 0 instructions: 33000002 cycles: 48323751 heartbeat IPC: 0.489565 cumulative IPC: 0.509355 (Simulation time: 0 hr 13 min 14 sec) 
Heartbeat CPU 0 instructions: 34000000 cycles: 50501976 heartbeat IPC: 0.459088 cumulative IPC: 0.507041 (Simulation time: 0 hr 13 min 39 sec) 
Heartbeat CPU 0 instructions: 35000000 cycles: 52663049 heartbeat IPC: 0.462733 cumulative IPC: 0.505107 (Simulation time: 0 hr 14 min 4 sec) 
Heartbeat CPU 0 instructions: 36000000 cycles: 54829085 heartbeat IPC: 0.461673 cumulative IPC: 0.503286 (Simulation time: 0 hr 14 min 29 sec) 
Heartbeat CPU 0 instructions: 37000002 cycles: 57003629 heartbeat IPC: 0.459867 cumulative IPC: 0.501532 (Simulation time: 0 hr 14 min 56 sec) 
Heartbeat CPU 0 instructions: 38000003 cycles: 58712297 heartbeat IPC: 0.585252 cumulative IPC: 0.504107 (Simulation time: 0 hr 15 min 23 sec) 
Heartbeat CPU 0 instructions: 39000000 cycles: 60123703 heartbeat IPC: 0.708511 cumulative IPC: 0.509173 (Simulation time: 0 hr 15 min 54 sec) 
Heartbeat CPU 0 instructions: 40000000 cycles: 61429277 heartbeat IPC: 0.765947 cumulative IPC: 0.514927 (Simulation time: 0 hr 16 min 22 sec) 
Heartbeat CPU 0 instructions: 41000000 cycles: 62816834 heartbeat IPC: 0.720691 cumulative IPC: 0.519713 (Simulation time: 0 hr 16 min 52 sec) 
Heartbeat CPU 0 instructions: 42000001 cycles: 64228239 heartbeat IPC: 0.708515 cumulative IPC: 0.524077 (Simulation time: 0 hr 17 min 22 sec) 
Heartbeat CPU 0 instructions: 43000000 cycles: 66285810 heartbeat IPC: 0.486009 cumulative IPC: 0.522836 (Simulation time: 0 hr 17 min 49 sec) 
Heartbeat CPU 0 instructions: 44000000 cycles: 68453569 heartbeat IPC: 0.461306 cumulative IPC: 0.520793 (Simulation time: 0 hr 18 min 12 sec) 
Heartbeat CPU 0 instructions: 45000001 cycles: 70615659 heartbeat IPC: 0.462516 cumulative IPC: 0.518925 (Simulation time: 0 hr 18 min 37 sec) 
Heartbeat CPU 0 instructions: 46000002 cycles: 72767788 heartbeat IPC: 0.464657 cumulative IPC: 0.517247 (Simulation time: 0 hr 19 min 2 sec) 
Heartbeat CPU 0 instructions: 47000000 cycles: 74935307 heartbeat IPC: 0.461356 cumulative IPC: 0.515559 (Simulation time: 0 hr 19 min 27 sec) 
Heartbeat CPU 0 instructions: 48000000 cycles: 76673096 heartbeat IPC: 0.575444 cumulative IPC: 0.516975 (Simulation time: 0 hr 19 min 53 sec) 
Heartbeat CPU 0 instructions: 49000002 cycles: 78192688 heartbeat IPC: 0.658073 cumulative IPC: 0.519833 (Simulation time: 0 hr 20 min 20 sec) 
Heartbeat CPU 0 instructions: 50000001 cycles: 79712156 heartbeat IPC: 0.658124 cumulative IPC: 0.522578 (Simulation time: 0 hr 20 min 45 sec) 
Heartbeat CPU 0 instructions: 51000000 cycles: 81231727 heartbeat IPC: 0.65808 cumulative IPC: 0.525216 (Simulation time: 0 hr 21 min 13 sec) 
Heartbeat CPU 0 instructions: 52000000 cycles: 82751401 heartbeat IPC: 0.658036 cumulative IPC: 0.527752 (Simulation time: 0 hr 21 min 41 sec) 
Heartbeat CPU 0 instructions: 53000002 cycles: 84271105 heartbeat IPC: 0.658024 cumulative IPC: 0.530193 (Simulation time: 0 hr 22 min 10 sec) 
Heartbeat CPU 0 instructions: 54000001 cycles: 85790245 heartbeat IPC: 0.658267 cumulative IPC: 0.532548 (Simulation time: 0 hr 22 min 42 sec) 
Heartbeat CPU 0 instructions: 55000000 cycles: 87309897 heartbeat IPC: 0.658045 cumulative IPC: 0.534814 (Simulation time: 0 hr 23 min 9 sec) 
Heartbeat CPU 0 instructions: 56000000 cycles: 88829366 heartbeat IPC: 0.658125 cumulative IPC: 0.537002 (Simulation time: 0 hr 23 min 38 sec) 
Heartbeat CPU 0 instructions: 57000000 cycles: 90348959 heartbeat IPC: 0.658071 cumulative IPC: 0.539112 (Simulation time: 0 hr 24 min 8 sec) 
Heartbeat CPU 0 instructions: 58000002 cycles: 91868430 heartbeat IPC: 0.658125 cumulative IPC: 0.541151 (Simulation time: 0 hr 24 min 37 sec) 
Heartbeat CPU 0 instructions: 59000001 cycles: 93307903 heartbeat IPC: 0.694698 cumulative IPC: 0.543603 (Simulation time: 0 hr 25 min 8 sec) 
Heartbeat CPU 0 instructions: 60000000 cycles: 94441201 heartbeat IPC: 0.88238 cumulative IPC: 0.547809 (Simulation time: 0 hr 25 min 39 sec) 
Heartbeat CPU 0 instructions: 61000003 cycles: 95960821 heartbeat IPC: 0.658061 cumulative IPC: 0.549615 (Simulation time: 0 hr 26 min 6 sec) 
Heartbeat CPU 0 instructions: 62000002 cycles: 97469338 heartbeat IPC: 0.662902 cumulative IPC: 0.551427 (Simulation time: 0 hr 26 min 35 sec) 
Heartbeat CPU 0 instructions: 63000001 cycles: 98988580 heartbeat IPC: 0.658222 cumulative IPC: 0.55312 (Simulation time: 0 hr 27 min 5 sec) 
Heartbeat CPU 0 instructions: 64000000 cycles: 100508044 heartbeat IPC: 0.658126 cumulative IPC: 0.554759 (Simulation time: 0 hr 27 min 37 sec) 
Heartbeat CPU 0 instructions: 65000001 cycles: 102027532 heartbeat IPC: 0.658117 cumulative IPC: 0.556348 (Simulation time: 0 hr 28 min 6 sec) 
Heartbeat CPU 0 instructions: 66000000 cycles: 103538752 heartbeat IPC: 0.661716 cumulative IPC: 0.557935 (Simulation time: 0 hr 28 min 35 sec) 
Heartbeat CPU 0 instructions: 67000001 cycles: 105009825 heartbeat IPC: 0.679777 cumulative IPC: 0.559695 (Simulation time: 0 hr 29 min 5 sec) 
Heartbeat CPU 0 instructions: 68000000 cycles: 106501948 heartbeat IPC: 0.670185 cumulative IPC: 0.56129 (Simulation time: 0 hr 29 min 37 sec) 
Heartbeat CPU 0 instructions: 69000002 cycles: 107994095 heartbeat IPC: 0.670177 cumulative IPC: 0.56284 (Simulation time: 0 hr 30 min 6 sec) 
Heartbeat CPU 0 instructions: 70000001 cycles: 109486316 heartbeat IPC: 0.670141 cumulative IPC: 0.564346 (Simulation time: 0 hr 30 min 36 sec) 
Heartbeat CPU 0 instructions: 71000003 cycles: 111038231 heartbeat IPC: 0.644367 cumulative IPC: 0.565497 (Simulation time: 0 hr 31 min 4 sec) 
Heartbeat CPU 0 instructions: 72000000 cycles: 113200316 heartbeat IPC: 0.462515 cumulative IPC: 0.563474 (Simulation time: 0 hr 31 min 27 sec) 
Heartbeat CPU 0 instructions: 73000000 cycles: 115367249 heartbeat IPC: 0.461482 cumulative IPC: 0.561504 (Simulation time: 0 hr 31 min 54 sec) 
Heartbeat CPU 0 instructions: 74000000 cycles: 117521903 heartbeat IPC: 0.464112 cumulative IPC: 0.559669 (Simulation time: 0 hr 32 min 18 sec) 
Heartbeat CPU 0 instructions: 75000000 cycles: 119683270 heartbeat IPC: 0.46267 cumulative IPC: 0.557869 (Simulation time: 0 hr 32 min 43 sec) 
Heartbeat CPU 0 instructions: 76000000 cycles: 121853174 heartbeat IPC: 0.46085 cumulative IPC: 0.556096 (Simulation time: 0 hr 33 min 7 sec) 
Heartbeat CPU 0 instructions: 77000001 cycles: 123445373 heartbeat IPC: 0.628063 cumulative IPC: 0.557048 (Simulation time: 0 hr 33 min 39 sec) 
Heartbeat CPU 0 instructions: 78000000 cycles: 124950523 heartbeat IPC: 0.664385 cumulative IPC: 0.558375 (Simulation time: 0 hr 34 min 9 sec) 
Heartbeat CPU 0 instructions: 79000001 cycles: 126037768 heartbeat IPC: 0.919757 cumulative IPC: 0.561573 (Simulation time: 0 hr 34 min 35 sec) 
Heartbeat CPU 0 instructions: 80000000 cycles: 127529019 heartbeat IPC: 0.670577 cumulative IPC: 0.56288 (Simulation time: 0 hr 35 min 2 sec) 
Heartbeat CPU 0 instructions: 81000002 cycles: 129131022 heartbeat IPC: 0.62422 cumulative IPC: 0.56366 (Simulation time: 0 hr 35 min 30 sec) 
Heartbeat CPU 0 instructions: 82000003 cycles: 131280254 heartbeat IPC: 0.465283 cumulative IPC: 0.56201 (Simulation time: 0 hr 35 min 56 sec) 
Heartbeat CPU 0 instructions: 83000000 cycles: 133438261 heartbeat IPC: 0.463389 cumulative IPC: 0.560376 (Simulation time: 0 hr 36 min 21 sec) 
Heartbeat CPU 0 instructions: 84000000 cycles: 135598875 heartbeat IPC: 0.462831 cumulative IPC: 0.558784 (Simulation time: 0 hr 36 min 44 sec) 
Heartbeat CPU 0 instructions: 85000002 cycles: 137750549 heartbeat IPC: 0.464755 cumulative IPC: 0.557281 (Simulation time: 0 hr 37 min 10 sec) 
Heartbeat CPU 0 instructions: 86000002 cycles: 139915845 heartbeat IPC: 0.461831 cumulative IPC: 0.55577 (Simulation time: 0 hr 37 min 35 sec) 
Heartbeat CPU 0 instructions: 87000002 cycles: 141532301 heartbeat IPC: 0.618637 cumulative IPC: 0.556504 (Simulation time: 0 hr 38 min 8 sec) 
Heartbeat CPU 0 instructions: 88000000 cycles: 143105395 heartbeat IPC: 0.635689 cumulative IPC: 0.557394 (Simulation time: 0 hr 38 min 38 sec) 
Heartbeat CPU 0 instructions: 89000000 cycles: 144678563 heartbeat IPC: 0.63566 cumulative IPC: 0.558264 (Simulation time: 0 hr 39 min 9 sec) 
Heartbeat CPU 0 instructions: 90000000 cycles: 146592642 heartbeat IPC: 0.522444 cumulative IPC: 0.557786 (Simulation time: 0 hr 39 min 39 sec) 
Heartbeat CPU 0 instructions: 91000001 cycles: 149353105 heartbeat IPC: 0.362258 cumulative IPC: 0.554094 (Simulation time: 0 hr 40 min 8 sec) 
Heartbeat CPU 0 instructions: 92000000 cycles: 152089118 heartbeat IPC: 0.365495 cumulative IPC: 0.550629 (Simulation time: 0 hr 40 min 36 sec) 
Heartbeat CPU 0 instructions: 93000001 cycles: 154834410 heartbeat IPC: 0.36426 cumulative IPC: 0.547256 (Simulation time: 0 hr 41 min 2 sec) 
Heartbeat CPU 0 instructions: 94000001 cycles: 157382887 heartbeat IPC: 0.392391 cumulative IPC: 0.544697 (Simulation time: 0 hr 41 min 28 sec) 
Heartbeat CPU 0 instructions: 95000000 cycles: 158954821 heartbeat IPC: 0.636158 cumulative IPC: 0.545619 (Simulation time: 0 hr 41 min 58 sec) 
Heartbeat CPU 0 instructions: 96000000 cycles: 160291932 heartbeat IPC: 0.747881 cumulative IPC: 0.547341 (Simulation time: 0 hr 42 min 28 sec) 
Heartbeat CPU 0 instructions: 97000002 cycles: 161826402 heartbeat IPC: 0.651692 cumulative IPC: 0.54835 (Simulation time: 0 hr 43 min 3 sec) 
Heartbeat CPU 0 instructions: 98000001 cycles: 163926806 heartbeat IPC: 0.476098 cumulative IPC: 0.547406 (Simulation time: 0 hr 43 min 34 sec) 
Heartbeat CPU 0 instructions: 99000003 cycles: 166634023 heartbeat IPC: 0.369384 cumulative IPC: 0.544458 (Simulation time: 0 hr 43 min 59 sec) 
Heartbeat CPU 0 instructions: 100000000 cycles: 169347110 heartbeat IPC: 0.368583 cumulative IPC: 0.541586 (Simulation time: 0 hr 44 min 25 sec) 
Heartbeat CPU 0 instructions: 101000000 cycles: 172044013 heartbeat IPC: 0.370796 cumulative IPC: 0.538859 (Simulation time: 0 hr 44 min 49 sec) 
Heartbeat CPU 0 instructions: 102000000 cycles: 174289346 heartbeat IPC: 0.445368 cumulative IPC: 0.537632 (Simulation time: 0 hr 45 min 17 sec) 
Heartbeat CPU 0 instructions: 103000002 cycles: 175760211 heartbeat IPC: 0.679873 cumulative IPC: 0.538844 (Simulation time: 0 hr 45 min 45 sec) 
Heartbeat CPU 0 instructions: 104000000 cycles: 177231147 heartbeat IPC: 0.679838 cumulative IPC: 0.540036 (Simulation time: 0 hr 46 min 14 sec) 
Heartbeat CPU 0 instructions: 105000000 cycles: 178702028 heartbeat IPC: 0.679865 cumulative IPC: 0.541207 (Simulation time: 0 hr 46 min 42 sec) 
Heartbeat CPU 0 instructions: 106000003 cycles: 180172987 heartbeat IPC: 0.679831 cumulative IPC: 0.542359 (Simulation time: 0 hr 47 min 20 sec) 
Heartbeat CPU 0 instructions: 107000000 cycles: 182315887 heartbeat IPC: 0.466656 cumulative IPC: 0.541454 (Simulation time: 0 hr 47 min 45 sec) 
Heartbeat CPU 0 instructions: 108000000 cycles: 184812948 heartbeat IPC: 0.400471 cumulative IPC: 0.539516 (Simulation time: 0 hr 48 min 10 sec) 
Heartbeat CPU 0 instructions: 109000002 cycles: 187291307 heartbeat IPC: 0.403494 cumulative IPC: 0.537685 (Simulation time: 0 hr 48 min 36 sec) 
Heartbeat CPU 0 instructions: 110000002 cycles: 189779934 heartbeat IPC: 0.401828 cumulative IPC: 0.535873 (Simulation time: 0 hr 49 min 0 sec) 
Finished CPU 0 instructions: 100000000 cycles: 186611370 cummulative IPC: 0.535873 (Simulation time: 0 hr 49 min 0 sec) 

ChampSim completed all CPUs

Region of Interest Statistics

CPU 0 cummulative IPC: 0.535873 instructions: 100000000 cycles: 186611370
LLC TOTAL     ACCESS:    3801551  HIT:     105034  MISS:    3696517
LLC LOAD      ACCESS:     656970  HIT:      29383  MISS:     627587
LLC RFO       ACCESS:         20  HIT:         11  MISS:          9
LLC PREFETCH  ACCESS:    2132456  HIT:      70054  MISS:    2062402
LLC WRITEBACK ACCESS:    1012105  HIT:       5586  MISS:    1006519
