
*** ChampSim Multicore Out-of-Order Simulator ***

Warmup Instructions: 10000000
Simulation Instructions: 100000000
Configuration: 2
Number of CPUs: 1
LLC sets: 2048
LLC ways: 16
Off-chip DRAM Channels: 1 Width: 64-bit Data Rate: 1600 MT/s

CPU 0 runs /datasets/cs240c-wi22-a00-public/data/Assignment2-gz/cactusADM_1495B.trace.gz
CPU 0 L1D next line prefetcher
CPU 0 L2C IP-based stride prefetcher
config 2, num_core 1, llc_sets 2048
Heartbeat CPU 0 instructions: 1000003 cycles: 593383 heartbeat IPC: 1.68526 cumulative IPC: 1.68526 (Simulation time: 0 hr 2 min 28 sec) 
Heartbeat CPU 0 instructions: 2000000 cycles: 1186345 heartbeat IPC: 1.68644 cumulative IPC: 1.68585 (Simulation time: 0 hr 5 min 10 sec) 
Heartbeat CPU 0 instructions: 3000003 cycles: 1779703 heartbeat IPC: 1.68533 cumulative IPC: 1.68568 (Simulation time: 0 hr 7 min 55 sec) 
Heartbeat CPU 0 instructions: 4000000 cycles: 2372522 heartbeat IPC: 1.68685 cumulative IPC: 1.68597 (Simulation time: 0 hr 10 min 32 sec) 
Heartbeat CPU 0 instructions: 5000000 cycles: 2965579 heartbeat IPC: 1.68618 cumulative IPC: 1.68601 (Simulation time: 0 hr 13 min 1 sec) 
Heartbeat CPU 0 instructions: 6000001 cycles: 3558796 heartbeat IPC: 1.68573 cumulative IPC: 1.68596 (Simulation time: 0 hr 15 min 29 sec) 
Heartbeat CPU 0 instructions: 7000000 cycles: 4151738 heartbeat IPC: 1.6865 cumulative IPC: 1.68604 (Simulation time: 0 hr 17 min 49 sec) 
Heartbeat CPU 0 instructions: 8000000 cycles: 4906588 heartbeat IPC: 1.32477 cumulative IPC: 1.63046 (Simulation time: 0 hr 20 min 47 sec) 
Heartbeat CPU 0 instructions: 9000002 cycles: 5499789 heartbeat IPC: 1.68577 cumulative IPC: 1.63643 (Simulation time: 0 hr 23 min 9 sec) 
Heartbeat CPU 0 instructions: 10000002 cycles: 6092712 heartbeat IPC: 1.68656 cumulative IPC: 1.64131 (Simulation time: 0 hr 25 min 37 sec) 

Warmup complete CPU 0 instructions: 10000002 cycles: 6092712 (Simulation time: 0 hr 25 min 37 sec) 

Heartbeat CPU 0 instructions: 11000000 cycles: 7786482 heartbeat IPC: 0.590398 cumulative IPC: 0.590398 (Simulation time: 0 hr 28 min 26 sec) 
Heartbeat CPU 0 instructions: 12000000 cycles: 9530163 heartbeat IPC: 0.573499 cumulative IPC: 0.581826 (Simulation time: 0 hr 31 min 4 sec) 
Heartbeat CPU 0 instructions: 13000002 cycles: 11275544 heartbeat IPC: 0.572942 cumulative IPC: 0.578834 (Simulation time: 0 hr 33 min 55 sec) 
Heartbeat CPU 0 instructions: 14000001 cycles: 13011426 heartbeat IPC: 0.576075 cumulative IPC: 0.578142 (Simulation time: 0 hr 36 min 30 sec) 
Heartbeat CPU 0 instructions: 15000001 cycles: 14668788 heartbeat IPC: 0.603368 cumulative IPC: 0.583017 (Simulation time: 0 hr 39 min 8 sec) 
Heartbeat CPU 0 instructions: 16000000 cycles: 16390015 heartbeat IPC: 0.58098 cumulative IPC: 0.582677 (Simulation time: 0 hr 41 min 40 sec) 
Heartbeat CPU 0 instructions: 17000003 cycles: 18134534 heartbeat IPC: 0.573226 cumulative IPC: 0.581307 (Simulation time: 0 hr 44 min 35 sec) 
Heartbeat CPU 0 instructions: 18000000 cycles: 19880362 heartbeat IPC: 0.572792 cumulative IPC: 0.580229 (Simulation time: 0 hr 47 min 14 sec) 
Heartbeat CPU 0 instructions: 19000002 cycles: 21591080 heartbeat IPC: 0.584551 cumulative IPC: 0.580706 (Simulation time: 0 hr 50 min 10 sec) 
Heartbeat CPU 0 instructions: 20000000 cycles: 23257267 heartbeat IPC: 0.600172 cumulative IPC: 0.582596 (Simulation time: 0 hr 52 min 52 sec) 
Heartbeat CPU 0 instructions: 21000001 cycles: 29631719 heartbeat IPC: 0.156876 cumulative IPC: 0.467309 (Simulation time: 0 hr 56 min 0 sec) 
Heartbeat CPU 0 instructions: 22000000 cycles: 31735766 heartbeat IPC: 0.475274 cumulative IPC: 0.467963 (Simulation time: 0 hr 58 min 41 sec) 
Heartbeat CPU 0 instructions: 23000001 cycles: 33471687 heartbeat IPC: 0.576064 cumulative IPC: 0.474817 (Simulation time: 1 hr 1 min 2 sec) 
Heartbeat CPU 0 instructions: 24000000 cycles: 35131546 heartbeat IPC: 0.60246 cumulative IPC: 0.482113 (Simulation time: 1 hr 3 min 32 sec) 
Heartbeat CPU 0 instructions: 25000002 cycles: 36861320 heartbeat IPC: 0.578111 cumulative IPC: 0.48751 (Simulation time: 1 hr 5 min 52 sec) 
Heartbeat CPU 0 instructions: 26000000 cycles: 38619049 heartbeat IPC: 0.568915 cumulative IPC: 0.491909 (Simulation time: 1 hr 8 min 36 sec) 
Heartbeat CPU 0 instructions: 27000002 cycles: 40361084 heartbeat IPC: 0.574042 cumulative IPC: 0.496084 (Simulation time: 1 hr 11 min 15 sec) 
Heartbeat CPU 0 instructions: 28000000 cycles: 42072370 heartbeat IPC: 0.584355 cumulative IPC: 0.500283 (Simulation time: 1 hr 13 min 47 sec) 
Heartbeat CPU 0 instructions: 29000003 cycles: 43733986 heartbeat IPC: 0.601826 cumulative IPC: 0.504765 (Simulation time: 1 hr 16 min 28 sec) 
Heartbeat CPU 0 instructions: 30000000 cycles: 45506243 heartbeat IPC: 0.564251 cumulative IPC: 0.50744 (Simulation time: 1 hr 18 min 46 sec) 
Heartbeat CPU 0 instructions: 31000003 cycles: 47249571 heartbeat IPC: 0.573617 cumulative IPC: 0.510243 (Simulation time: 1 hr 21 min 11 sec) 
Heartbeat CPU 0 instructions: 32000000 cycles: 48990485 heartbeat IPC: 0.574409 cumulative IPC: 0.512847 (Simulation time: 1 hr 23 min 37 sec) 
Heartbeat CPU 0 instructions: 33000001 cycles: 50672023 heartbeat IPC: 0.594694 cumulative IPC: 0.515934 (Simulation time: 1 hr 26 min 15 sec) 
Heartbeat CPU 0 instructions: 34000002 cycles: 56141873 heartbeat IPC: 0.182821 cumulative IPC: 0.479529 (Simulation time: 1 hr 29 min 12 sec) 
Heartbeat CPU 0 instructions: 35000002 cycles: 59160132 heartbeat IPC: 0.331317 cumulative IPC: 0.471099 (Simulation time: 1 hr 31 min 47 sec) 
Heartbeat CPU 0 instructions: 36000000 cycles: 60902039 heartbeat IPC: 0.574082 cumulative IPC: 0.474372 (Simulation time: 1 hr 34 min 12 sec) 
Heartbeat CPU 0 instructions: 37000001 cycles: 62621410 heartbeat IPC: 0.581609 cumulative IPC: 0.477633 (Simulation time: 1 hr 36 min 40 sec) 
Heartbeat CPU 0 instructions: 38000003 cycles: 64280832 heartbeat IPC: 0.602621 cumulative IPC: 0.481198 (Simulation time: 1 hr 39 min 15 sec) 
Heartbeat CPU 0 instructions: 39000003 cycles: 66017160 heartbeat IPC: 0.575928 cumulative IPC: 0.483943 (Simulation time: 1 hr 41 min 54 sec) 
Heartbeat CPU 0 instructions: 40000000 cycles: 67760816 heartbeat IPC: 0.573506 cumulative IPC: 0.486475 (Simulation time: 1 hr 44 min 23 sec) 
Heartbeat CPU 0 instructions: 41000002 cycles: 69502000 heartbeat IPC: 0.574323 cumulative IPC: 0.488887 (Simulation time: 1 hr 46 min 57 sec) 
Heartbeat CPU 0 instructions: 42000000 cycles: 71187452 heartbeat IPC: 0.593311 cumulative IPC: 0.491591 (Simulation time: 1 hr 49 min 33 sec) 
Heartbeat CPU 0 instructions: 43000000 cycles: 72873978 heartbeat IPC: 0.592935 cumulative IPC: 0.494151 (Simulation time: 1 hr 52 min 9 sec) 
Heartbeat CPU 0 instructions: 44000000 cycles: 74617495 heartbeat IPC: 0.573553 cumulative IPC: 0.496171 (Simulation time: 1 hr 54 min 47 sec) 
Heartbeat CPU 0 instructions: 45000003 cycles: 76361593 heartbeat IPC: 0.573364 cumulative IPC: 0.498087 (Simulation time: 1 hr 57 min 28 sec) 
Heartbeat CPU 0 instructions: 46000002 cycles: 78097245 heartbeat IPC: 0.576152 cumulative IPC: 0.499969 (Simulation time: 1 hr 59 min 46 sec) 
Heartbeat CPU 0 instructions: 47000002 cycles: 82532604 heartbeat IPC: 0.225461 cumulative IPC: 0.48404 (Simulation time: 2 hr 2 min 43 sec) 
Heartbeat CPU 0 instructions: 48000000 cycles: 86533060 heartbeat IPC: 0.249971 cumulative IPC: 0.4724 (Simulation time: 2 hr 5 min 46 sec) 
Heartbeat CPU 0 instructions: 49000000 cycles: 88274286 heartbeat IPC: 0.574308 cumulative IPC: 0.474559 (Simulation time: 2 hr 8 min 22 sec) 
Heartbeat CPU 0 instructions: 50000000 cycles: 90016994 heartbeat IPC: 0.57382 cumulative IPC: 0.47662 (Simulation time: 2 hr 10 min 48 sec) 
Heartbeat CPU 0 instructions: 51000000 cycles: 91708164 heartbeat IPC: 0.591307 cumulative IPC: 0.478886 (Simulation time: 2 hr 13 min 28 sec) 
Heartbeat CPU 0 instructions: 52000000 cycles: 93392446 heartbeat IPC: 0.593725 cumulative IPC: 0.481101 (Simulation time: 2 hr 16 min 18 sec) 
Heartbeat CPU 0 instructions: 53000003 cycles: 95134162 heartbeat IPC: 0.574148 cumulative IPC: 0.482921 (Simulation time: 2 hr 18 min 59 sec) 
Heartbeat CPU 0 instructions: 54000001 cycles: 96876203 heartbeat IPC: 0.574038 cumulative IPC: 0.48467 (Simulation time: 2 hr 21 min 27 sec) 
Heartbeat CPU 0 instructions: 55000000 cycles: 98614679 heartbeat IPC: 0.575216 cumulative IPC: 0.486371 (Simulation time: 2 hr 23 min 51 sec) 
Heartbeat CPU 0 instructions: 56000000 cycles: 100275613 heartbeat IPC: 0.602071 cumulative IPC: 0.488411 (Simulation time: 2 hr 26 min 28 sec) 
Heartbeat CPU 0 instructions: 57000000 cycles: 101990624 heartbeat IPC: 0.583087 cumulative IPC: 0.490104 (Simulation time: 2 hr 29 min 12 sec) 
Heartbeat CPU 0 instructions: 58000002 cycles: 103734175 heartbeat IPC: 0.573543 cumulative IPC: 0.491594 (Simulation time: 2 hr 31 min 47 sec) 
Heartbeat CPU 0 instructions: 59000001 cycles: 105478213 heartbeat IPC: 0.573381 cumulative IPC: 0.49303 (Simulation time: 2 hr 34 min 19 sec) 
Heartbeat CPU 0 instructions: 60000000 cycles: 108884457 heartbeat IPC: 0.293578 cumulative IPC: 0.48642 (Simulation time: 2 hr 36 min 57 sec) 
Heartbeat CPU 0 instructions: 61000001 cycles: 113891204 heartbeat IPC: 0.199731 cumulative IPC: 0.473105 (Simulation time: 2 hr 39 min 55 sec) 
Heartbeat CPU 0 instructions: 62000000 cycles: 115631923 heartbeat IPC: 0.574475 cumulative IPC: 0.474716 (Simulation time: 2 hr 42 min 45 sec) 
Heartbeat CPU 0 instructions: 63000000 cycles: 117377209 heartbeat IPC: 0.572972 cumulative IPC: 0.476257 (Simulation time: 2 hr 44 min 59 sec) 
Heartbeat CPU 0 instructions: 64000000 cycles: 119116158 heartbeat IPC: 0.57506 cumulative IPC: 0.477777 (Simulation time: 2 hr 47 min 46 sec) 
Heartbeat CPU 0 instructions: 65000002 cycles: 120781747 heartbeat IPC: 0.600389 cumulative IPC: 0.479558 (Simulation time: 2 hr 50 min 38 sec) 
Heartbeat CPU 0 instructions: 66000003 cycles: 122492729 heartbeat IPC: 0.58446 cumulative IPC: 0.4811 (Simulation time: 2 hr 53 min 10 sec) 
Heartbeat CPU 0 instructions: 67000001 cycles: 124234581 heartbeat IPC: 0.5741 cumulative IPC: 0.482471 (Simulation time: 2 hr 55 min 58 sec) 
Heartbeat CPU 0 instructions: 68000000 cycles: 125975356 heartbeat IPC: 0.574456 cumulative IPC: 0.483806 (Simulation time: 2 hr 58 min 45 sec) 
Heartbeat CPU 0 instructions: 69000003 cycles: 127693806 heartbeat IPC: 0.581922 cumulative IPC: 0.485193 (Simulation time: 3 hr 1 min 30 sec) 
Heartbeat CPU 0 instructions: 70000000 cycles: 129351644 heartbeat IPC: 0.603193 cumulative IPC: 0.48678 (Simulation time: 3 hr 4 min 11 sec) 
Heartbeat CPU 0 instructions: 71000002 cycles: 131085279 heartbeat IPC: 0.576824 cumulative IPC: 0.488029 (Simulation time: 3 hr 7 min 2 sec) 
Heartbeat CPU 0 instructions: 72000000 cycles: 132830831 heartbeat IPC: 0.572884 cumulative IPC: 0.489198 (Simulation time: 3 hr 10 min 2 sec) 
Heartbeat CPU 0 instructions: 73000001 cycles: 135315229 heartbeat IPC: 0.402512 cumulative IPC: 0.487531 (Simulation time: 3 hr 13 min 7 sec) 
Heartbeat CPU 0 instructions: 74000002 cycles: 141313708 heartbeat IPC: 0.166709 cumulative IPC: 0.473299 (Simulation time: 3 hr 16 min 28 sec) 
Heartbeat CPU 0 instructions: 75000002 cycles: 143017817 heartbeat IPC: 0.586817 cumulative IPC: 0.474712 (Simulation time: 3 hr 19 min 5 sec) 
Heartbeat CPU 0 instructions: 76000000 cycles: 144762403 heartbeat IPC: 0.573201 cumulative IPC: 0.475951 (Simulation time: 3 hr 21 min 47 sec) 
Heartbeat CPU 0 instructions: 77000001 cycles: 146506723 heartbeat IPC: 0.57329 cumulative IPC: 0.47716 (Simulation time: 3 hr 24 min 15 sec) 
Heartbeat CPU 0 instructions: 78000000 cycles: 148234158 heartbeat IPC: 0.578892 cumulative IPC: 0.478397 (Simulation time: 3 hr 27 min 19 sec) 
Heartbeat CPU 0 instructions: 79000003 cycles: 149886526 heartbeat IPC: 0.605194 cumulative IPC: 0.479854 (Simulation time: 3 hr 30 min 35 sec) 
Heartbeat CPU 0 instructions: 80000000 cycles: 151618833 heartbeat IPC: 0.577263 cumulative IPC: 0.481013 (Simulation time: 3 hr 33 min 50 sec) 
Heartbeat CPU 0 instructions: 81000002 cycles: 153357134 heartbeat IPC: 0.575276 cumulative IPC: 0.482126 (Simulation time: 3 hr 36 min 50 sec) 
Heartbeat CPU 0 instructions: 82000000 cycles: 155096588 heartbeat IPC: 0.574892 cumulative IPC: 0.483209 (Simulation time: 3 hr 39 min 53 sec) 
Heartbeat CPU 0 instructions: 83000000 cycles: 156787976 heartbeat IPC: 0.59123 cumulative IPC: 0.484421 (Simulation time: 3 hr 42 min 45 sec) 
Heartbeat CPU 0 instructions: 84000000 cycles: 158468140 heartbeat IPC: 0.59518 cumulative IPC: 0.485643 (Simulation time: 3 hr 45 min 38 sec) 
Heartbeat CPU 0 instructions: 85000003 cycles: 160235481 heartbeat IPC: 0.565823 cumulative IPC: 0.486562 (Simulation time: 3 hr 48 min 14 sec) 
Heartbeat CPU 0 instructions: 86000000 cycles: 161981160 heartbeat IPC: 0.572841 cumulative IPC: 0.487528 (Simulation time: 3 hr 51 min 14 sec) 
Heartbeat CPU 0 instructions: 87000001 cycles: 168824123 heartbeat IPC: 0.146136 cumulative IPC: 0.473172 (Simulation time: 3 hr 54 min 46 sec) 
Heartbeat CPU 0 instructions: 88000000 cycles: 170474753 heartbeat IPC: 0.605829 cumulative IPC: 0.474504 (Simulation time: 3 hr 57 min 29 sec) 
Heartbeat CPU 0 instructions: 89000002 cycles: 172207909 heartbeat IPC: 0.576983 cumulative IPC: 0.475574 (Simulation time: 4 hr 0 min 5 sec) 
Heartbeat CPU 0 instructions: 90000001 cycles: 173979476 heartbeat IPC: 0.564471 cumulative IPC: 0.476512 (Simulation time: 4 hr 2 min 55 sec) 
Heartbeat CPU 0 instructions: 91000002 cycles: 175723071 heartbeat IPC: 0.573528 cumulative IPC: 0.477509 (Simulation time: 4 hr 5 min 34 sec) 
Heartbeat CPU 0 instructions: 92000000 cycles: 177422934 heartbeat IPC: 0.588282 cumulative IPC: 0.478608 (Simulation time: 4 hr 8 min 27 sec) 
Heartbeat CPU 0 instructions: 93000002 cycles: 179096768 heartbeat IPC: 0.597432 cumulative IPC: 0.479758 (Simulation time: 4 hr 10 min 59 sec) 
Heartbeat CPU 0 instructions: 94000002 cycles: 180832510 heartbeat IPC: 0.576122 cumulative IPC: 0.480715 (Simulation time: 4 hr 13 min 23 sec) 
Heartbeat CPU 0 instructions: 95000003 cycles: 182572559 heartbeat IPC: 0.574697 cumulative IPC: 0.481641 (Simulation time: 4 hr 15 min 43 sec) 
Heartbeat CPU 0 instructions: 96000000 cycles: 184311871 heartbeat IPC: 0.574938 cumulative IPC: 0.482552 (Simulation time: 4 hr 17 min 51 sec) 
Heartbeat CPU 0 instructions: 97000003 cycles: 185979114 heartbeat IPC: 0.599794 cumulative IPC: 0.483639 (Simulation time: 4 hr 20 min 9 sec) 
Heartbeat CPU 0 instructions: 98000003 cycles: 187685463 heartbeat IPC: 0.586047 cumulative IPC: 0.484601 (Simulation time: 4 hr 22 min 22 sec) 
Heartbeat CPU 0 instructions: 99000000 cycles: 189429477 heartbeat IPC: 0.573388 cumulative IPC: 0.485445 (Simulation time: 4 hr 24 min 33 sec) 
Heartbeat CPU 0 instructions: 100000000 cycles: 196254500 heartbeat IPC: 0.14652 cumulative IPC: 0.473281 (Simulation time: 4 hr 27 min 21 sec) 
Heartbeat CPU 0 instructions: 101000000 cycles: 197958631 heartbeat IPC: 0.586809 cumulative IPC: 0.47429 (Simulation time: 4 hr 29 min 25 sec) 
Heartbeat CPU 0 instructions: 102000003 cycles: 199631956 heartbeat IPC: 0.597614 cumulative IPC: 0.475356 (Simulation time: 4 hr 31 min 23 sec) 
Heartbeat CPU 0 instructions: 103000000 cycles: 201370886 heartbeat IPC: 0.575065 cumulative IPC: 0.476244 (Simulation time: 4 hr 33 min 15 sec) 
Heartbeat CPU 0 instructions: 104000000 cycles: 203115793 heartbeat IPC: 0.573096 cumulative IPC: 0.477101 (Simulation time: 4 hr 34 min 58 sec) 
Heartbeat CPU 0 instructions: 105000001 cycles: 204856870 heartbeat IPC: 0.574358 cumulative IPC: 0.477953 (Simulation time: 4 hr 36 min 37 sec) 
Heartbeat CPU 0 instructions: 106000000 cycles: 206528889 heartbeat IPC: 0.598079 cumulative IPC: 0.478955 (Simulation time: 4 hr 38 min 11 sec) 
Heartbeat CPU 0 instructions: 107000001 cycles: 208227227 heartbeat IPC: 0.588812 cumulative IPC: 0.479878 (Simulation time: 4 hr 39 min 38 sec) 
Heartbeat CPU 0 instructions: 108000000 cycles: 209966650 heartbeat IPC: 0.574903 cumulative IPC: 0.480689 (Simulation time: 4 hr 41 min 6 sec) 
Heartbeat CPU 0 instructions: 109000002 cycles: 211708165 heartbeat IPC: 0.574214 cumulative IPC: 0.481481 (Simulation time: 4 hr 42 min 25 sec) 
Heartbeat CPU 0 instructions: 110000001 cycles: 213436990 heartbeat IPC: 0.578427 cumulative IPC: 0.48229 (Simulation time: 4 hr 43 min 39 sec) 
Finished CPU 0 instructions: 100000003 cycles: 207344279 cummulative IPC: 0.48229 (Simulation time: 4 hr 43 min 39 sec) 

ChampSim completed all CPUs

Region of Interest Statistics

CPU 0 cummulative IPC: 0.48229 instructions: 100000003 cycles: 207344279
LLC TOTAL     ACCESS:    1112268  HIT:     146940  MISS:     965328
LLC LOAD      ACCESS:      27457  HIT:        541  MISS:      26916
LLC RFO       ACCESS:     245174  HIT:      16994  MISS:     228180
LLC PREFETCH  ACCESS:     594127  HIT:      84320  MISS:     509807
LLC WRITEBACK ACCESS:     245510  HIT:      45085  MISS:     200425
