
*** ChampSim Multicore Out-of-Order Simulator ***

Warmup Instructions: 10000000
Simulation Instructions: 100000000
Configuration: 2
Number of CPUs: 1
LLC sets: 2048
LLC ways: 16
Off-chip DRAM Channels: 1 Width: 64-bit Data Rate: 1600 MT/s

CPU 0 runs /datasets/cs240c-wi22-a00-public/data/Assignment2-gz/omnetpp_17B.trace.gz
CPU 0 L1D next line prefetcher
CPU 0 L2C IP-based stride prefetcher
config 2, num_core 1, llc_sets 2048
Heartbeat CPU 0 instructions: 1000000 cycles: 559596 heartbeat IPC: 1.787 cumulative IPC: 1.787 (Simulation time: 0 hr 2 min 34 sec) 
Heartbeat CPU 0 instructions: 2000002 cycles: 1134028 heartbeat IPC: 1.74085 cumulative IPC: 1.76363 (Simulation time: 0 hr 4 min 38 sec) 
Heartbeat CPU 0 instructions: 3000001 cycles: 1769368 heartbeat IPC: 1.57396 cumulative IPC: 1.69552 (Simulation time: 0 hr 6 min 52 sec) 
Heartbeat CPU 0 instructions: 4000000 cycles: 2334705 heartbeat IPC: 1.76885 cumulative IPC: 1.71328 (Simulation time: 0 hr 9 min 10 sec) 
Heartbeat CPU 0 instructions: 5000002 cycles: 2894205 heartbeat IPC: 1.78731 cumulative IPC: 1.72759 (Simulation time: 0 hr 11 min 39 sec) 
Heartbeat CPU 0 instructions: 6000000 cycles: 3472966 heartbeat IPC: 1.72783 cumulative IPC: 1.72763 (Simulation time: 0 hr 13 min 53 sec) 
Heartbeat CPU 0 instructions: 7000000 cycles: 4037538 heartbeat IPC: 1.77125 cumulative IPC: 1.73373 (Simulation time: 0 hr 16 min 32 sec) 
Heartbeat CPU 0 instructions: 8000000 cycles: 4699272 heartbeat IPC: 1.51118 cumulative IPC: 1.70239 (Simulation time: 0 hr 18 min 52 sec) 
Heartbeat CPU 0 instructions: 9000000 cycles: 5361079 heartbeat IPC: 1.51101 cumulative IPC: 1.67877 (Simulation time: 0 hr 21 min 30 sec) 
Heartbeat CPU 0 instructions: 10000001 cycles: 6022649 heartbeat IPC: 1.51156 cumulative IPC: 1.6604 (Simulation time: 0 hr 23 min 50 sec) 

Warmup complete CPU 0 instructions: 10000001 cycles: 6022649 (Simulation time: 0 hr 23 min 50 sec) 

Heartbeat CPU 0 instructions: 11000001 cycles: 7067465 heartbeat IPC: 0.957106 cumulative IPC: 0.957106 (Simulation time: 0 hr 26 min 17 sec) 
Heartbeat CPU 0 instructions: 12000000 cycles: 8112028 heartbeat IPC: 0.957337 cumulative IPC: 0.957222 (Simulation time: 0 hr 28 min 48 sec) 
Heartbeat CPU 0 instructions: 13000000 cycles: 9181960 heartbeat IPC: 0.934639 cumulative IPC: 0.949574 (Simulation time: 0 hr 31 min 19 sec) 
Heartbeat CPU 0 instructions: 14000001 cycles: 10226341 heartbeat IPC: 0.957506 cumulative IPC: 0.951545 (Simulation time: 0 hr 33 min 27 sec) 
Heartbeat CPU 0 instructions: 15000000 cycles: 11270549 heartbeat IPC: 0.957663 cumulative IPC: 0.952762 (Simulation time: 0 hr 36 min 2 sec) 
Heartbeat CPU 0 instructions: 16000000 cycles: 12314716 heartbeat IPC: 0.957701 cumulative IPC: 0.953582 (Simulation time: 0 hr 38 min 26 sec) 
Heartbeat CPU 0 instructions: 17000000 cycles: 13360273 heartbeat IPC: 0.956428 cumulative IPC: 0.953987 (Simulation time: 0 hr 40 min 55 sec) 
Heartbeat CPU 0 instructions: 18000001 cycles: 14401617 heartbeat IPC: 0.960298 cumulative IPC: 0.954772 (Simulation time: 0 hr 43 min 20 sec) 
Heartbeat CPU 0 instructions: 19000002 cycles: 15436449 heartbeat IPC: 0.966341 cumulative IPC: 0.956043 (Simulation time: 0 hr 45 min 51 sec) 
Heartbeat CPU 0 instructions: 20000000 cycles: 18784675 heartbeat IPC: 0.298665 cumulative IPC: 0.783575 (Simulation time: 0 hr 49 min 20 sec) 
Heartbeat CPU 0 instructions: 21000000 cycles: 21277714 heartbeat IPC: 0.401117 cumulative IPC: 0.721072 (Simulation time: 0 hr 52 min 33 sec) 
Heartbeat CPU 0 instructions: 22000002 cycles: 23097734 heartbeat IPC: 0.549446 cumulative IPC: 0.702778 (Simulation time: 0 hr 55 min 42 sec) 
Heartbeat CPU 0 instructions: 23000000 cycles: 26300274 heartbeat IPC: 0.312252 cumulative IPC: 0.641101 (Simulation time: 0 hr 58 min 49 sec) 
Heartbeat CPU 0 instructions: 24000000 cycles: 29468989 heartbeat IPC: 0.315585 cumulative IPC: 0.597108 (Simulation time: 1 hr 2 min 19 sec) 
Heartbeat CPU 0 instructions: 25000001 cycles: 32033048 heartbeat IPC: 0.390007 cumulative IPC: 0.576692 (Simulation time: 1 hr 5 min 38 sec) 
Heartbeat CPU 0 instructions: 26000001 cycles: 33667854 heartbeat IPC: 0.611693 cumulative IPC: 0.578762 (Simulation time: 1 hr 8 min 48 sec) 
Heartbeat CPU 0 instructions: 27000000 cycles: 36846373 heartbeat IPC: 0.314612 cumulative IPC: 0.551523 (Simulation time: 1 hr 12 min 23 sec) 
Heartbeat CPU 0 instructions: 28000000 cycles: 40030019 heartbeat IPC: 0.314105 cumulative IPC: 0.529297 (Simulation time: 1 hr 16 min 3 sec) 
Heartbeat CPU 0 instructions: 29000000 cycles: 42769279 heartbeat IPC: 0.365062 cumulative IPC: 0.517054 (Simulation time: 1 hr 19 min 33 sec) 
Heartbeat CPU 0 instructions: 30000000 cycles: 44242542 heartbeat IPC: 0.678765 cumulative IPC: 0.523288 (Simulation time: 1 hr 22 min 17 sec) 
Heartbeat CPU 0 instructions: 31000000 cycles: 47417761 heartbeat IPC: 0.314939 cumulative IPC: 0.507306 (Simulation time: 1 hr 25 min 41 sec) 
Heartbeat CPU 0 instructions: 32000000 cycles: 50593348 heartbeat IPC: 0.314902 cumulative IPC: 0.493598 (Simulation time: 1 hr 28 min 51 sec) 
Heartbeat CPU 0 instructions: 33000001 cycles: 53510717 heartbeat IPC: 0.342775 cumulative IPC: 0.484332 (Simulation time: 1 hr 31 min 27 sec) 
Heartbeat CPU 0 instructions: 34000000 cycles: 54798759 heartbeat IPC: 0.776371 cumulative IPC: 0.492044 (Simulation time: 1 hr 33 min 34 sec) 
Heartbeat CPU 0 instructions: 35000003 cycles: 57973770 heartbeat IPC: 0.31496 cumulative IPC: 0.481222 (Simulation time: 1 hr 36 min 3 sec) 
Heartbeat CPU 0 instructions: 36000000 cycles: 61187573 heartbeat IPC: 0.311157 cumulative IPC: 0.471314 (Simulation time: 1 hr 38 min 37 sec) 
Heartbeat CPU 0 instructions: 37000001 cycles: 64009935 heartbeat IPC: 0.354314 cumulative IPC: 0.465619 (Simulation time: 1 hr 40 min 42 sec) 
Heartbeat CPU 0 instructions: 38000000 cycles: 65409622 heartbeat IPC: 0.714445 cumulative IPC: 0.471484 (Simulation time: 1 hr 42 min 27 sec) 
Heartbeat CPU 0 instructions: 39000000 cycles: 68588193 heartbeat IPC: 0.314607 cumulative IPC: 0.463514 (Simulation time: 1 hr 44 min 27 sec) 
Heartbeat CPU 0 instructions: 40000000 cycles: 71775997 heartbeat IPC: 0.313696 cumulative IPC: 0.456251 (Simulation time: 1 hr 46 min 48 sec) 
Heartbeat CPU 0 instructions: 41000002 cycles: 74497152 heartbeat IPC: 0.367492 cumulative IPC: 0.452723 (Simulation time: 1 hr 48 min 57 sec) 
Heartbeat CPU 0 instructions: 42000000 cycles: 75989951 heartbeat IPC: 0.669881 cumulative IPC: 0.457356 (Simulation time: 1 hr 51 min 11 sec) 
Heartbeat CPU 0 instructions: 43000003 cycles: 81238587 heartbeat IPC: 0.190526 cumulative IPC: 0.438737 (Simulation time: 1 hr 53 min 54 sec) 
Heartbeat CPU 0 instructions: 44000000 cycles: 82285136 heartbeat IPC: 0.955519 cumulative IPC: 0.445829 (Simulation time: 1 hr 55 min 36 sec) 
Heartbeat CPU 0 instructions: 45000003 cycles: 83327916 heartbeat IPC: 0.958978 cumulative IPC: 0.452751 (Simulation time: 1 hr 57 min 19 sec) 
Heartbeat CPU 0 instructions: 46000001 cycles: 84370983 heartbeat IPC: 0.958709 cumulative IPC: 0.459486 (Simulation time: 1 hr 59 min 16 sec) 
Heartbeat CPU 0 instructions: 47000001 cycles: 85415518 heartbeat IPC: 0.957364 cumulative IPC: 0.466037 (Simulation time: 2 hr 1 min 3 sec) 
Heartbeat CPU 0 instructions: 48000000 cycles: 86458716 heartbeat IPC: 0.95859 cumulative IPC: 0.472425 (Simulation time: 2 hr 2 min 48 sec) 
Heartbeat CPU 0 instructions: 49000000 cycles: 87500522 heartbeat IPC: 0.959872 cumulative IPC: 0.478658 (Simulation time: 2 hr 4 min 57 sec) 
Heartbeat CPU 0 instructions: 50000000 cycles: 88543530 heartbeat IPC: 0.958765 cumulative IPC: 0.484726 (Simulation time: 2 hr 6 min 40 sec) 
Heartbeat CPU 0 instructions: 51000002 cycles: 89586572 heartbeat IPC: 0.958736 cumulative IPC: 0.490642 (Simulation time: 2 hr 8 min 41 sec) 
Heartbeat CPU 0 instructions: 52000000 cycles: 90630811 heartbeat IPC: 0.957633 cumulative IPC: 0.496406 (Simulation time: 2 hr 10 min 33 sec) 
Heartbeat CPU 0 instructions: 53000001 cycles: 91673283 heartbeat IPC: 0.959259 cumulative IPC: 0.502039 (Simulation time: 2 hr 12 min 32 sec) 
Heartbeat CPU 0 instructions: 54000002 cycles: 92741408 heartbeat IPC: 0.936221 cumulative IPC: 0.507387 (Simulation time: 2 hr 14 min 11 sec) 
Heartbeat CPU 0 instructions: 55000003 cycles: 93781683 heartbeat IPC: 0.961285 cumulative IPC: 0.512768 (Simulation time: 2 hr 16 min 1 sec) 
Heartbeat CPU 0 instructions: 56000000 cycles: 95995000 heartbeat IPC: 0.451809 cumulative IPC: 0.511268 (Simulation time: 2 hr 17 min 56 sec) 
Heartbeat CPU 0 instructions: 57000003 cycles: 97988232 heartbeat IPC: 0.501699 cumulative IPC: 0.511061 (Simulation time: 2 hr 20 min 10 sec) 
Heartbeat CPU 0 instructions: 58000000 cycles: 101188184 heartbeat IPC: 0.312504 cumulative IPC: 0.504384 (Simulation time: 2 hr 22 min 30 sec) 
Heartbeat CPU 0 instructions: 59000003 cycles: 104383818 heartbeat IPC: 0.312928 cumulative IPC: 0.498164 (Simulation time: 2 hr 24 min 56 sec) 
Heartbeat CPU 0 instructions: 60000000 cycles: 106746207 heartbeat IPC: 0.423299 cumulative IPC: 0.496408 (Simulation time: 2 hr 27 min 2 sec) 
Heartbeat CPU 0 instructions: 61000001 cycles: 108595468 heartbeat IPC: 0.540757 cumulative IPC: 0.497208 (Simulation time: 2 hr 29 min 4 sec) 
Heartbeat CPU 0 instructions: 62000001 cycles: 111777988 heartbeat IPC: 0.314216 cumulative IPC: 0.491701 (Simulation time: 2 hr 31 min 22 sec) 
Heartbeat CPU 0 instructions: 63000000 cycles: 114973494 heartbeat IPC: 0.312939 cumulative IPC: 0.486458 (Simulation time: 2 hr 33 min 44 sec) 
Heartbeat CPU 0 instructions: 64000000 cycles: 117498236 heartbeat IPC: 0.39608 cumulative IPC: 0.484411 (Simulation time: 2 hr 36 min 1 sec) 
Heartbeat CPU 0 instructions: 65000000 cycles: 119179805 heartbeat IPC: 0.594683 cumulative IPC: 0.48605 (Simulation time: 2 hr 37 min 59 sec) 
Heartbeat CPU 0 instructions: 66000000 cycles: 122366942 heartbeat IPC: 0.313761 cumulative IPC: 0.48133 (Simulation time: 2 hr 40 min 3 sec) 
Heartbeat CPU 0 instructions: 67000001 cycles: 125565742 heartbeat IPC: 0.312618 cumulative IPC: 0.476815 (Simulation time: 2 hr 42 min 12 sec) 
Heartbeat CPU 0 instructions: 68000000 cycles: 128274802 heartbeat IPC: 0.369131 cumulative IPC: 0.474429 (Simulation time: 2 hr 43 min 56 sec) 
Heartbeat CPU 0 instructions: 69000001 cycles: 129785248 heartbeat IPC: 0.662057 cumulative IPC: 0.476719 (Simulation time: 2 hr 45 min 34 sec) 
Heartbeat CPU 0 instructions: 70000001 cycles: 132963572 heartbeat IPC: 0.314631 cumulative IPC: 0.472661 (Simulation time: 2 hr 47 min 33 sec) 
Heartbeat CPU 0 instructions: 71000001 cycles: 136157004 heartbeat IPC: 0.313143 cumulative IPC: 0.468746 (Simulation time: 2 hr 49 min 31 sec) 
Heartbeat CPU 0 instructions: 72000000 cycles: 138878696 heartbeat IPC: 0.367418 cumulative IPC: 0.466671 (Simulation time: 2 hr 51 min 36 sec) 
Heartbeat CPU 0 instructions: 73000000 cycles: 140394269 heartbeat IPC: 0.659816 cumulative IPC: 0.468849 (Simulation time: 2 hr 53 min 26 sec) 
Heartbeat CPU 0 instructions: 74000003 cycles: 143597276 heartbeat IPC: 0.312208 cumulative IPC: 0.465202 (Simulation time: 2 hr 55 min 28 sec) 
Heartbeat CPU 0 instructions: 75000001 cycles: 146793836 heartbeat IPC: 0.312836 cumulative IPC: 0.461742 (Simulation time: 2 hr 57 min 36 sec) 
Heartbeat CPU 0 instructions: 76000000 cycles: 149412604 heartbeat IPC: 0.381859 cumulative IPC: 0.460283 (Simulation time: 2 hr 59 min 26 sec) 
Heartbeat CPU 0 instructions: 77000001 cycles: 151023466 heartbeat IPC: 0.620786 cumulative IPC: 0.462066 (Simulation time: 3 hr 1 min 14 sec) 
Heartbeat CPU 0 instructions: 78000000 cycles: 154214244 heartbeat IPC: 0.313403 cumulative IPC: 0.458865 (Simulation time: 3 hr 3 min 32 sec) 
Heartbeat CPU 0 instructions: 79000000 cycles: 157570589 heartbeat IPC: 0.297943 cumulative IPC: 0.455301 (Simulation time: 3 hr 5 min 38 sec) 
Heartbeat CPU 0 instructions: 80000000 cycles: 159406391 heartbeat IPC: 0.544721 cumulative IPC: 0.456372 (Simulation time: 3 hr 7 min 25 sec) 
Heartbeat CPU 0 instructions: 81000001 cycles: 161790711 heartbeat IPC: 0.419407 cumulative IPC: 0.455806 (Simulation time: 3 hr 9 min 32 sec) 
Heartbeat CPU 0 instructions: 82000000 cycles: 164987271 heartbeat IPC: 0.312836 cumulative IPC: 0.452931 (Simulation time: 3 hr 11 min 56 sec) 
Heartbeat CPU 0 instructions: 83000000 cycles: 168182862 heartbeat IPC: 0.312931 cumulative IPC: 0.450172 (Simulation time: 3 hr 14 min 1 sec) 
Heartbeat CPU 0 instructions: 84000000 cycles: 169980218 heartbeat IPC: 0.556373 cumulative IPC: 0.451336 (Simulation time: 3 hr 15 min 53 sec) 
Heartbeat CPU 0 instructions: 85000003 cycles: 172392516 heartbeat IPC: 0.414544 cumulative IPC: 0.450803 (Simulation time: 3 hr 17 min 45 sec) 
Heartbeat CPU 0 instructions: 86000001 cycles: 175595556 heartbeat IPC: 0.312203 cumulative IPC: 0.448185 (Simulation time: 3 hr 20 min 0 sec) 
Heartbeat CPU 0 instructions: 87000000 cycles: 178791090 heartbeat IPC: 0.312936 cumulative IPC: 0.445683 (Simulation time: 3 hr 22 min 0 sec) 
Heartbeat CPU 0 instructions: 88000000 cycles: 180464052 heartbeat IPC: 0.597742 cumulative IPC: 0.447142 (Simulation time: 3 hr 24 min 0 sec) 
Heartbeat CPU 0 instructions: 89000000 cycles: 185067301 heartbeat IPC: 0.217238 cumulative IPC: 0.441231 (Simulation time: 3 hr 26 min 27 sec) 
Heartbeat CPU 0 instructions: 90000002 cycles: 186110745 heartbeat IPC: 0.958367 cumulative IPC: 0.444227 (Simulation time: 3 hr 28 min 13 sec) 
Heartbeat CPU 0 instructions: 91000001 cycles: 187154953 heartbeat IPC: 0.957663 cumulative IPC: 0.447187 (Simulation time: 3 hr 29 min 58 sec) 
Heartbeat CPU 0 instructions: 92000000 cycles: 188198709 heartbeat IPC: 0.958077 cumulative IPC: 0.450114 (Simulation time: 3 hr 31 min 43 sec) 
Heartbeat CPU 0 instructions: 93000002 cycles: 189242974 heartbeat IPC: 0.957613 cumulative IPC: 0.453007 (Simulation time: 3 hr 33 min 38 sec) 
Heartbeat CPU 0 instructions: 94000001 cycles: 190286802 heartbeat IPC: 0.958011 cumulative IPC: 0.455867 (Simulation time: 3 hr 35 min 10 sec) 
Heartbeat CPU 0 instructions: 95000000 cycles: 191331066 heartbeat IPC: 0.957611 cumulative IPC: 0.458695 (Simulation time: 3 hr 36 min 50 sec) 
Heartbeat CPU 0 instructions: 96000000 cycles: 192375861 heartbeat IPC: 0.957126 cumulative IPC: 0.461489 (Simulation time: 3 hr 38 min 52 sec) 
Heartbeat CPU 0 instructions: 97000002 cycles: 193446713 heartbeat IPC: 0.933838 cumulative IPC: 0.464188 (Simulation time: 3 hr 40 min 31 sec) 
Heartbeat CPU 0 instructions: 98000000 cycles: 194492341 heartbeat IPC: 0.956361 cumulative IPC: 0.466919 (Simulation time: 3 hr 42 min 7 sec) 
Heartbeat CPU 0 instructions: 99000003 cycles: 195530678 heartbeat IPC: 0.963081 cumulative IPC: 0.469637 (Simulation time: 3 hr 43 min 39 sec) 
Heartbeat CPU 0 instructions: 100000000 cycles: 196567132 heartbeat IPC: 0.964825 cumulative IPC: 0.472331 (Simulation time: 3 hr 45 min 15 sec) 
Heartbeat CPU 0 instructions: 101000001 cycles: 197608767 heartbeat IPC: 0.96003 cumulative IPC: 0.474982 (Simulation time: 3 hr 46 min 43 sec) 
Heartbeat CPU 0 instructions: 102000001 cycles: 200750118 heartbeat IPC: 0.318334 cumulative IPC: 0.472455 (Simulation time: 3 hr 48 min 40 sec) 
Heartbeat CPU 0 instructions: 103000001 cycles: 202140050 heartbeat IPC: 0.71946 cumulative IPC: 0.474206 (Simulation time: 3 hr 50 min 32 sec) 
Heartbeat CPU 0 instructions: 104000000 cycles: 205017333 heartbeat IPC: 0.34755 cumulative IPC: 0.472374 (Simulation time: 3 hr 52 min 33 sec) 
Heartbeat CPU 0 instructions: 105000000 cycles: 208206332 heartbeat IPC: 0.313578 cumulative IPC: 0.46987 (Simulation time: 3 hr 54 min 36 sec) 
Heartbeat CPU 0 instructions: 106000000 cycles: 211342921 heartbeat IPC: 0.318818 cumulative IPC: 0.467562 (Simulation time: 3 hr 56 min 33 sec) 
Heartbeat CPU 0 instructions: 107000001 cycles: 212889117 heartbeat IPC: 0.646749 cumulative IPC: 0.468902 (Simulation time: 3 hr 58 min 20 sec) 
Heartbeat CPU 0 instructions: 108000000 cycles: 215612844 heartbeat IPC: 0.367144 cumulative IPC: 0.467579 (Simulation time: 4 hr 0 min 14 sec) 
Heartbeat CPU 0 instructions: 109000000 cycles: 218808086 heartbeat IPC: 0.312965 cumulative IPC: 0.465257 (Simulation time: 4 hr 2 min 22 sec) 
Heartbeat CPU 0 instructions: 110000000 cycles: 221987840 heartbeat IPC: 0.31449 cumulative IPC: 0.463038 (Simulation time: 4 hr 4 min 28 sec) 
Finished CPU 0 instructions: 100000003 cycles: 215965196 cummulative IPC: 0.463038 (Simulation time: 4 hr 4 min 28 sec) 

ChampSim completed all CPUs

Region of Interest Statistics

CPU 0 cummulative IPC: 0.463038 instructions: 100000003 cycles: 215965196
LLC TOTAL     ACCESS:    3282977  HIT:    1564091  MISS:    1718886
LLC LOAD      ACCESS:    1560249  HIT:    1396286  MISS:     163963
LLC RFO       ACCESS:       5220  HIT:       2821  MISS:       2399
LLC PREFETCH  ACCESS:    1700660  HIT:     160069  MISS:    1540591
LLC WRITEBACK ACCESS:      16848  HIT:       4915  MISS:      11933
