
*** ChampSim Multicore Out-of-Order Simulator ***

Warmup Instructions: 10000000
Simulation Instructions: 100000000
Configuration: 2
Number of CPUs: 1
LLC sets: 2048
LLC ways: 16
Off-chip DRAM Channels: 1 Width: 64-bit Data Rate: 1600 MT/s

CPU 0 runs /datasets/cs240c-wi22-a00-public/data/Assignment2-gz/soplex_66B.trace.gz
CPU 0 L1D next line prefetcher
CPU 0 L2C IP-based stride prefetcher
config 2, num_core 1, llc_sets 2048
Heartbeat CPU 0 instructions: 1000003 cycles: 415144 heartbeat IPC: 2.40881 cumulative IPC: 2.40881 (Simulation time: 0 hr 2 min 31 sec) 
Heartbeat CPU 0 instructions: 2000003 cycles: 837673 heartbeat IPC: 2.3667 cumulative IPC: 2.38757 (Simulation time: 0 hr 4 min 44 sec) 
Heartbeat CPU 0 instructions: 3000003 cycles: 1243349 heartbeat IPC: 2.46502 cumulative IPC: 2.41284 (Simulation time: 0 hr 7 min 6 sec) 
Heartbeat CPU 0 instructions: 4000000 cycles: 1627468 heartbeat IPC: 2.60335 cumulative IPC: 2.45781 (Simulation time: 0 hr 9 min 12 sec) 
Heartbeat CPU 0 instructions: 5000000 cycles: 2039292 heartbeat IPC: 2.42822 cumulative IPC: 2.45183 (Simulation time: 0 hr 11 min 17 sec) 
Heartbeat CPU 0 instructions: 6000000 cycles: 2511137 heartbeat IPC: 2.11934 cumulative IPC: 2.38936 (Simulation time: 0 hr 13 min 27 sec) 
Heartbeat CPU 0 instructions: 7000002 cycles: 2883758 heartbeat IPC: 2.6837 cumulative IPC: 2.42739 (Simulation time: 0 hr 15 min 57 sec) 
Heartbeat CPU 0 instructions: 8000000 cycles: 3309404 heartbeat IPC: 2.34937 cumulative IPC: 2.41735 (Simulation time: 0 hr 18 min 41 sec) 
Heartbeat CPU 0 instructions: 9000001 cycles: 3747984 heartbeat IPC: 2.28009 cumulative IPC: 2.40129 (Simulation time: 0 hr 21 min 4 sec) 
Heartbeat CPU 0 instructions: 10000002 cycles: 4160178 heartbeat IPC: 2.42604 cumulative IPC: 2.40374 (Simulation time: 0 hr 23 min 28 sec) 

Warmup complete CPU 0 instructions: 10000002 cycles: 4160178 (Simulation time: 0 hr 23 min 28 sec) 

Heartbeat CPU 0 instructions: 11000001 cycles: 7363010 heartbeat IPC: 0.312223 cumulative IPC: 0.312223 (Simulation time: 0 hr 26 min 56 sec) 
Heartbeat CPU 0 instructions: 12000000 cycles: 8721984 heartbeat IPC: 0.735848 cumulative IPC: 0.438422 (Simulation time: 0 hr 29 min 8 sec) 
Heartbeat CPU 0 instructions: 13000001 cycles: 11324771 heartbeat IPC: 0.384204 cumulative IPC: 0.418726 (Simulation time: 0 hr 32 min 0 sec) 
Heartbeat CPU 0 instructions: 14000002 cycles: 13826948 heartbeat IPC: 0.399652 cumulative IPC: 0.413789 (Simulation time: 0 hr 35 min 14 sec) 
Heartbeat CPU 0 instructions: 15000002 cycles: 16474861 heartbeat IPC: 0.377656 cumulative IPC: 0.406019 (Simulation time: 0 hr 37 min 55 sec) 
Heartbeat CPU 0 instructions: 16000000 cycles: 19297910 heartbeat IPC: 0.354226 cumulative IPC: 0.39636 (Simulation time: 0 hr 41 min 4 sec) 
Heartbeat CPU 0 instructions: 17000001 cycles: 21404308 heartbeat IPC: 0.474745 cumulative IPC: 0.405935 (Simulation time: 0 hr 44 min 4 sec) 
Heartbeat CPU 0 instructions: 18000000 cycles: 23375031 heartbeat IPC: 0.507427 cumulative IPC: 0.416344 (Simulation time: 0 hr 46 min 42 sec) 
Heartbeat CPU 0 instructions: 19000002 cycles: 26725407 heartbeat IPC: 0.298475 cumulative IPC: 0.398844 (Simulation time: 0 hr 49 min 26 sec) 
Heartbeat CPU 0 instructions: 20000000 cycles: 28070033 heartbeat IPC: 0.7437 cumulative IPC: 0.418238 (Simulation time: 0 hr 51 min 1 sec) 
Heartbeat CPU 0 instructions: 21000000 cycles: 30245268 heartbeat IPC: 0.45972 cumulative IPC: 0.421697 (Simulation time: 0 hr 52 min 55 sec) 
Heartbeat CPU 0 instructions: 22000000 cycles: 32885510 heartbeat IPC: 0.378753 cumulative IPC: 0.41775 (Simulation time: 0 hr 54 min 57 sec) 
Heartbeat CPU 0 instructions: 23000000 cycles: 35464989 heartbeat IPC: 0.387675 cumulative IPC: 0.415272 (Simulation time: 0 hr 57 min 4 sec) 
Heartbeat CPU 0 instructions: 24000000 cycles: 38070885 heartbeat IPC: 0.383745 cumulative IPC: 0.412849 (Simulation time: 0 hr 59 min 29 sec) 
Heartbeat CPU 0 instructions: 25000003 cycles: 40223954 heartbeat IPC: 0.464455 cumulative IPC: 0.41593 (Simulation time: 1 hr 2 min 38 sec) 
Heartbeat CPU 0 instructions: 26000001 cycles: 42323054 heartbeat IPC: 0.476394 cumulative IPC: 0.419256 (Simulation time: 1 hr 4 min 42 sec) 
Heartbeat CPU 0 instructions: 27000002 cycles: 45584817 heartbeat IPC: 0.306583 cumulative IPC: 0.410384 (Simulation time: 1 hr 7 min 32 sec) 
Heartbeat CPU 0 instructions: 28000000 cycles: 46921396 heartbeat IPC: 0.748177 cumulative IPC: 0.420942 (Simulation time: 1 hr 9 min 18 sec) 
Heartbeat CPU 0 instructions: 29000002 cycles: 48720718 heartbeat IPC: 0.555766 cumulative IPC: 0.426386 (Simulation time: 1 hr 11 min 12 sec) 
Heartbeat CPU 0 instructions: 30000000 cycles: 51512401 heartbeat IPC: 0.358206 cumulative IPC: 0.422367 (Simulation time: 1 hr 13 min 54 sec) 
Heartbeat CPU 0 instructions: 31000001 cycles: 54120062 heartbeat IPC: 0.383486 cumulative IPC: 0.420337 (Simulation time: 1 hr 15 min 56 sec) 
Heartbeat CPU 0 instructions: 32000000 cycles: 56685068 heartbeat IPC: 0.389862 cumulative IPC: 0.418849 (Simulation time: 1 hr 18 min 2 sec) 
Heartbeat CPU 0 instructions: 33000001 cycles: 59756890 heartbeat IPC: 0.32554 cumulative IPC: 0.413694 (Simulation time: 1 hr 20 min 53 sec) 
Heartbeat CPU 0 instructions: 34000003 cycles: 61682713 heartbeat IPC: 0.51926 cumulative IPC: 0.417228 (Simulation time: 1 hr 23 min 20 sec) 
Heartbeat CPU 0 instructions: 35000003 cycles: 64557001 heartbeat IPC: 0.347912 cumulative IPC: 0.413929 (Simulation time: 1 hr 25 min 51 sec) 
Heartbeat CPU 0 instructions: 36000000 cycles: 65890082 heartbeat IPC: 0.75014 cumulative IPC: 0.42119 (Simulation time: 1 hr 27 min 28 sec) 
Heartbeat CPU 0 instructions: 37000000 cycles: 68393058 heartbeat IPC: 0.399524 cumulative IPC: 0.420345 (Simulation time: 1 hr 29 min 50 sec) 
Heartbeat CPU 0 instructions: 38000001 cycles: 70789700 heartbeat IPC: 0.417251 cumulative IPC: 0.420234 (Simulation time: 1 hr 32 min 3 sec) 
Heartbeat CPU 0 instructions: 39000003 cycles: 73427173 heartbeat IPC: 0.379152 cumulative IPC: 0.41867 (Simulation time: 1 hr 34 min 7 sec) 
Heartbeat CPU 0 instructions: 40000000 cycles: 76216628 heartbeat IPC: 0.358492 cumulative IPC: 0.41634 (Simulation time: 1 hr 36 min 16 sec) 
Heartbeat CPU 0 instructions: 41000001 cycles: 78233343 heartbeat IPC: 0.495856 cumulative IPC: 0.418505 (Simulation time: 1 hr 38 min 49 sec) 
Heartbeat CPU 0 instructions: 42000003 cycles: 80132572 heartbeat IPC: 0.526531 cumulative IPC: 0.421206 (Simulation time: 1 hr 41 min 8 sec) 
Heartbeat CPU 0 instructions: 43000000 cycles: 83397191 heartbeat IPC: 0.306314 cumulative IPC: 0.416472 (Simulation time: 1 hr 43 min 32 sec) 
Heartbeat CPU 0 instructions: 44000000 cycles: 84734294 heartbeat IPC: 0.747886 cumulative IPC: 0.421972 (Simulation time: 1 hr 45 min 13 sec) 
Heartbeat CPU 0 instructions: 45000003 cycles: 86861261 heartbeat IPC: 0.470154 cumulative IPC: 0.423211 (Simulation time: 1 hr 47 min 32 sec) 
Heartbeat CPU 0 instructions: 46000003 cycles: 89447147 heartbeat IPC: 0.386715 cumulative IPC: 0.422104 (Simulation time: 1 hr 49 min 56 sec) 
Heartbeat CPU 0 instructions: 47000001 cycles: 92014679 heartbeat IPC: 0.389478 cumulative IPC: 0.421151 (Simulation time: 1 hr 51 min 53 sec) 
Heartbeat CPU 0 instructions: 48000000 cycles: 94625558 heartbeat IPC: 0.383012 cumulative IPC: 0.42005 (Simulation time: 1 hr 54 min 5 sec) 
Heartbeat CPU 0 instructions: 49000000 cycles: 97924999 heartbeat IPC: 0.303082 cumulative IPC: 0.415934 (Simulation time: 1 hr 57 min 6 sec) 
Heartbeat CPU 0 instructions: 50000003 cycles: 103885898 heartbeat IPC: 0.16776 cumulative IPC: 0.4011 (Simulation time: 2 hr 0 min 22 sec) 
Heartbeat CPU 0 instructions: 51000002 cycles: 106307543 heartbeat IPC: 0.412942 cumulative IPC: 0.401381 (Simulation time: 2 hr 3 min 28 sec) 
Heartbeat CPU 0 instructions: 52000000 cycles: 110630122 heartbeat IPC: 0.231343 cumulative IPC: 0.394478 (Simulation time: 2 hr 6 min 28 sec) 
Heartbeat CPU 0 instructions: 53000003 cycles: 113526375 heartbeat IPC: 0.345275 cumulative IPC: 0.393174 (Simulation time: 2 hr 8 min 54 sec) 
Heartbeat CPU 0 instructions: 54000000 cycles: 116056721 heartbeat IPC: 0.395202 cumulative IPC: 0.39322 (Simulation time: 2 hr 11 min 27 sec) 
Heartbeat CPU 0 instructions: 55000002 cycles: 119621639 heartbeat IPC: 0.280512 cumulative IPC: 0.38974 (Simulation time: 2 hr 13 min 50 sec) 
Heartbeat CPU 0 instructions: 56000000 cycles: 123138283 heartbeat IPC: 0.284361 cumulative IPC: 0.386626 (Simulation time: 2 hr 16 min 34 sec) 
Heartbeat CPU 0 instructions: 57000003 cycles: 125755670 heartbeat IPC: 0.382062 cumulative IPC: 0.386528 (Simulation time: 2 hr 19 min 14 sec) 
Heartbeat CPU 0 instructions: 58000000 cycles: 128001848 heartbeat IPC: 0.445199 cumulative IPC: 0.387592 (Simulation time: 2 hr 21 min 41 sec) 
Heartbeat CPU 0 instructions: 59000002 cycles: 129510363 heartbeat IPC: 0.662905 cumulative IPC: 0.390905 (Simulation time: 2 hr 23 min 53 sec) 
Heartbeat CPU 0 instructions: 60000000 cycles: 130768965 heartbeat IPC: 0.794531 cumulative IPC: 0.394917 (Simulation time: 2 hr 26 min 13 sec) 
Heartbeat CPU 0 instructions: 61000002 cycles: 133611049 heartbeat IPC: 0.351855 cumulative IPC: 0.393972 (Simulation time: 2 hr 28 min 51 sec) 
Heartbeat CPU 0 instructions: 62000000 cycles: 136318682 heartbeat IPC: 0.369326 cumulative IPC: 0.393467 (Simulation time: 2 hr 31 min 59 sec) 
Heartbeat CPU 0 instructions: 63000002 cycles: 138400580 heartbeat IPC: 0.480332 cumulative IPC: 0.394814 (Simulation time: 2 hr 34 min 52 sec) 
Heartbeat CPU 0 instructions: 64000000 cycles: 140810284 heartbeat IPC: 0.414988 cumulative IPC: 0.39517 (Simulation time: 2 hr 37 min 9 sec) 
Heartbeat CPU 0 instructions: 65000000 cycles: 145104654 heartbeat IPC: 0.232863 cumulative IPC: 0.390225 (Simulation time: 2 hr 40 min 3 sec) 
Heartbeat CPU 0 instructions: 66000001 cycles: 146588585 heartbeat IPC: 0.673886 cumulative IPC: 0.39318 (Simulation time: 2 hr 41 min 48 sec) 
Heartbeat CPU 0 instructions: 67000000 cycles: 148035400 heartbeat IPC: 0.691173 cumulative IPC: 0.396177 (Simulation time: 2 hr 43 min 25 sec) 
Heartbeat CPU 0 instructions: 68000000 cycles: 151494420 heartbeat IPC: 0.289099 cumulative IPC: 0.393663 (Simulation time: 2 hr 45 min 44 sec) 
Heartbeat CPU 0 instructions: 69000000 cycles: 154026898 heartbeat IPC: 0.39487 cumulative IPC: 0.393683 (Simulation time: 2 hr 47 min 57 sec) 
Heartbeat CPU 0 instructions: 70000003 cycles: 156466336 heartbeat IPC: 0.409932 cumulative IPC: 0.393943 (Simulation time: 2 hr 49 min 59 sec) 
Heartbeat CPU 0 instructions: 71000000 cycles: 158965700 heartbeat IPC: 0.400101 cumulative IPC: 0.394043 (Simulation time: 2 hr 52 min 55 sec) 
Heartbeat CPU 0 instructions: 72000000 cycles: 161799111 heartbeat IPC: 0.352931 cumulative IPC: 0.393304 (Simulation time: 2 hr 55 min 18 sec) 
Heartbeat CPU 0 instructions: 73000002 cycles: 164900894 heartbeat IPC: 0.322396 cumulative IPC: 0.391936 (Simulation time: 2 hr 58 min 24 sec) 
Heartbeat CPU 0 instructions: 74000000 cycles: 166944307 heartbeat IPC: 0.489376 cumulative IPC: 0.393159 (Simulation time: 3 hr 0 min 12 sec) 
Heartbeat CPU 0 instructions: 75000002 cycles: 168311771 heartbeat IPC: 0.731282 cumulative IPC: 0.395975 (Simulation time: 3 hr 1 min 54 sec) 
Heartbeat CPU 0 instructions: 76000000 cycles: 171498917 heartbeat IPC: 0.31376 cumulative IPC: 0.39441 (Simulation time: 3 hr 4 min 17 sec) 
Heartbeat CPU 0 instructions: 77000000 cycles: 173915488 heartbeat IPC: 0.413809 cumulative IPC: 0.394686 (Simulation time: 3 hr 6 min 3 sec) 
Heartbeat CPU 0 instructions: 78000003 cycles: 176447351 heartbeat IPC: 0.394967 cumulative IPC: 0.39469 (Simulation time: 3 hr 7 min 52 sec) 
Heartbeat CPU 0 instructions: 79000001 cycles: 179468478 heartbeat IPC: 0.331002 cumulative IPC: 0.393592 (Simulation time: 3 hr 10 min 23 sec) 
Heartbeat CPU 0 instructions: 80000000 cycles: 182004075 heartbeat IPC: 0.394384 cumulative IPC: 0.393604 (Simulation time: 3 hr 12 min 50 sec) 
Heartbeat CPU 0 instructions: 81000003 cycles: 184883185 heartbeat IPC: 0.347331 cumulative IPC: 0.392866 (Simulation time: 3 hr 15 min 42 sec) 
Heartbeat CPU 0 instructions: 82000000 cycles: 186616328 heartbeat IPC: 0.576985 cumulative IPC: 0.394615 (Simulation time: 3 hr 17 min 37 sec) 
Heartbeat CPU 0 instructions: 83000001 cycles: 187936417 heartbeat IPC: 0.757525 cumulative IPC: 0.397222 (Simulation time: 3 hr 19 min 33 sec) 
Heartbeat CPU 0 instructions: 84000000 cycles: 191037292 heartbeat IPC: 0.322489 cumulative IPC: 0.395982 (Simulation time: 3 hr 22 min 15 sec) 
Heartbeat CPU 0 instructions: 85000002 cycles: 193472686 heartbeat IPC: 0.410612 cumulative IPC: 0.39617 (Simulation time: 3 hr 24 min 50 sec) 
Heartbeat CPU 0 instructions: 86000000 cycles: 196140039 heartbeat IPC: 0.374903 cumulative IPC: 0.395875 (Simulation time: 3 hr 27 min 50 sec) 
Heartbeat CPU 0 instructions: 87000000 cycles: 198937322 heartbeat IPC: 0.35749 cumulative IPC: 0.395324 (Simulation time: 3 hr 31 min 57 sec) 
Heartbeat CPU 0 instructions: 88000000 cycles: 201101569 heartbeat IPC: 0.462054 cumulative IPC: 0.396057 (Simulation time: 3 hr 35 min 11 sec) 
Heartbeat CPU 0 instructions: 89000001 cycles: 204330408 heartbeat IPC: 0.309709 cumulative IPC: 0.394664 (Simulation time: 3 hr 39 min 3 sec) 
Heartbeat CPU 0 instructions: 90000002 cycles: 205671104 heartbeat IPC: 0.745882 cumulative IPC: 0.397001 (Simulation time: 3 hr 41 min 30 sec) 
Heartbeat CPU 0 instructions: 91000000 cycles: 207064722 heartbeat IPC: 0.717555 cumulative IPC: 0.399202 (Simulation time: 3 hr 44 min 15 sec) 
Heartbeat CPU 0 instructions: 92000000 cycles: 210026449 heartbeat IPC: 0.337641 cumulative IPC: 0.398317 (Simulation time: 3 hr 48 min 4 sec) 
Heartbeat CPU 0 instructions: 93000000 cycles: 212649269 heartbeat IPC: 0.381269 cumulative IPC: 0.398102 (Simulation time: 3 hr 50 min 46 sec) 
Heartbeat CPU 0 instructions: 94000001 cycles: 215211639 heartbeat IPC: 0.390264 cumulative IPC: 0.398007 (Simulation time: 3 hr 53 min 34 sec) 
Heartbeat CPU 0 instructions: 95000003 cycles: 218176563 heartbeat IPC: 0.337277 cumulative IPC: 0.397166 (Simulation time: 3 hr 57 min 26 sec) 
Heartbeat CPU 0 instructions: 96000000 cycles: 220095672 heartbeat IPC: 0.521074 cumulative IPC: 0.398267 (Simulation time: 4 hr 0 min 36 sec) 
Heartbeat CPU 0 instructions: 97000003 cycles: 223187525 heartbeat IPC: 0.323432 cumulative IPC: 0.397211 (Simulation time: 4 hr 3 min 56 sec) 
Heartbeat CPU 0 instructions: 98000003 cycles: 224518688 heartbeat IPC: 0.751223 cumulative IPC: 0.399349 (Simulation time: 4 hr 6 min 8 sec) 
Heartbeat CPU 0 instructions: 99000000 cycles: 226783631 heartbeat IPC: 0.441511 cumulative IPC: 0.399778 (Simulation time: 4 hr 8 min 48 sec) 
Heartbeat CPU 0 instructions: 100000000 cycles: 229304497 heartbeat IPC: 0.396689 cumulative IPC: 0.399744 (Simulation time: 4 hr 11 min 58 sec) 
Heartbeat CPU 0 instructions: 101000001 cycles: 231861855 heartbeat IPC: 0.391029 cumulative IPC: 0.399646 (Simulation time: 4 hr 14 min 33 sec) 
Heartbeat CPU 0 instructions: 102000002 cycles: 234547303 heartbeat IPC: 0.372378 cumulative IPC: 0.399328 (Simulation time: 4 hr 16 min 35 sec) 
Heartbeat CPU 0 instructions: 103000002 cycles: 237428625 heartbeat IPC: 0.347063 cumulative IPC: 0.398682 (Simulation time: 4 hr 18 min 49 sec) 
Heartbeat CPU 0 instructions: 104000000 cycles: 239588763 heartbeat IPC: 0.462932 cumulative IPC: 0.399272 (Simulation time: 4 hr 21 min 3 sec) 
Heartbeat CPU 0 instructions: 105000000 cycles: 241979752 heartbeat IPC: 0.418237 cumulative IPC: 0.399462 (Simulation time: 4 hr 22 min 56 sec) 
Heartbeat CPU 0 instructions: 106000001 cycles: 243302270 heartbeat IPC: 0.756134 cumulative IPC: 0.401435 (Simulation time: 4 hr 24 min 21 sec) 
Heartbeat CPU 0 instructions: 107000001 cycles: 246149681 heartbeat IPC: 0.351196 cumulative IPC: 0.400844 (Simulation time: 4 hr 26 min 11 sec) 
Heartbeat CPU 0 instructions: 108000000 cycles: 248380188 heartbeat IPC: 0.448328 cumulative IPC: 0.401278 (Simulation time: 4 hr 27 min 41 sec) 
Heartbeat CPU 0 instructions: 109000003 cycles: 251008849 heartbeat IPC: 0.380423 cumulative IPC: 0.401055 (Simulation time: 4 hr 29 min 14 sec) 
Heartbeat CPU 0 instructions: 110000001 cycles: 253895888 heartbeat IPC: 0.346375 cumulative IPC: 0.400423 (Simulation time: 4 hr 31 min 10 sec) 
Finished CPU 0 instructions: 100000003 cycles: 249735711 cummulative IPC: 0.400423 (Simulation time: 4 hr 31 min 10 sec) 

ChampSim completed all CPUs

Region of Interest Statistics

CPU 0 cummulative IPC: 0.400423 instructions: 100000003 cycles: 249735711
LLC TOTAL     ACCESS:    6604492  HIT:    2887322  MISS:    3717170
LLC LOAD      ACCESS:    1698222  HIT:     753000  MISS:     945222
LLC RFO       ACCESS:     658492  HIT:     286018  MISS:     372474
LLC PREFETCH  ACCESS:    2687170  HIT:     901116  MISS:    1786054
LLC WRITEBACK ACCESS:    1560608  HIT:     947188  MISS:     613420
