
*** ChampSim Multicore Out-of-Order Simulator ***

Warmup Instructions: 10000000
Simulation Instructions: 100000000
Configuration: 2
Number of CPUs: 1
LLC sets: 2048
LLC ways: 16
Off-chip DRAM Channels: 1 Width: 64-bit Data Rate: 1600 MT/s

CPU 0 runs /datasets/cs240c-wi22-a00-public/data/Assignment2-gz/wrf_1228B.trace.gz
CPU 0 L1D next line prefetcher
CPU 0 L2C IP-based stride prefetcher
config 2, num_core 1, llc_sets 2048
Heartbeat CPU 0 instructions: 1000003 cycles: 591063 heartbeat IPC: 1.69187 cumulative IPC: 1.69187 (Simulation time: 0 hr 2 min 51 sec) 
Heartbeat CPU 0 instructions: 2000003 cycles: 1111219 heartbeat IPC: 1.9225 cumulative IPC: 1.79983 (Simulation time: 0 hr 5 min 2 sec) 
Heartbeat CPU 0 instructions: 3000000 cycles: 1729184 heartbeat IPC: 1.61821 cumulative IPC: 1.73492 (Simulation time: 0 hr 7 min 42 sec) 
Heartbeat CPU 0 instructions: 4000000 cycles: 2349835 heartbeat IPC: 1.61121 cumulative IPC: 1.70225 (Simulation time: 0 hr 10 min 27 sec) 
Heartbeat CPU 0 instructions: 5000000 cycles: 3052198 heartbeat IPC: 1.42377 cumulative IPC: 1.63816 (Simulation time: 0 hr 13 min 12 sec) 
Heartbeat CPU 0 instructions: 6000000 cycles: 3612304 heartbeat IPC: 1.78538 cumulative IPC: 1.66099 (Simulation time: 0 hr 15 min 47 sec) 
Heartbeat CPU 0 instructions: 7000001 cycles: 4165076 heartbeat IPC: 1.80907 cumulative IPC: 1.68064 (Simulation time: 0 hr 18 min 41 sec) 
Heartbeat CPU 0 instructions: 8000000 cycles: 4716441 heartbeat IPC: 1.81368 cumulative IPC: 1.69619 (Simulation time: 0 hr 21 min 41 sec) 
Heartbeat CPU 0 instructions: 9000002 cycles: 5266621 heartbeat IPC: 1.81759 cumulative IPC: 1.70888 (Simulation time: 0 hr 24 min 55 sec) 
Heartbeat CPU 0 instructions: 10000001 cycles: 5819517 heartbeat IPC: 1.80866 cumulative IPC: 1.71836 (Simulation time: 0 hr 27 min 43 sec) 

Warmup complete CPU 0 instructions: 10000001 cycles: 5819517 (Simulation time: 0 hr 27 min 43 sec) 

Heartbeat CPU 0 instructions: 11000003 cycles: 6707544 heartbeat IPC: 1.12609 cumulative IPC: 1.12609 (Simulation time: 0 hr 30 min 39 sec) 
Heartbeat CPU 0 instructions: 12000000 cycles: 7705606 heartbeat IPC: 1.00194 cumulative IPC: 1.06039 (Simulation time: 0 hr 33 min 39 sec) 
Heartbeat CPU 0 instructions: 13000003 cycles: 8710664 heartbeat IPC: 0.99497 cumulative IPC: 1.03765 (Simulation time: 0 hr 36 min 30 sec) 
Heartbeat CPU 0 instructions: 14000002 cycles: 9623848 heartbeat IPC: 1.09507 cumulative IPC: 1.05143 (Simulation time: 0 hr 39 min 21 sec) 
Heartbeat CPU 0 instructions: 15000001 cycles: 10416096 heartbeat IPC: 1.26223 cumulative IPC: 1.08777 (Simulation time: 0 hr 42 min 12 sec) 
Heartbeat CPU 0 instructions: 16000000 cycles: 11298292 heartbeat IPC: 1.13353 cumulative IPC: 1.09514 (Simulation time: 0 hr 45 min 17 sec) 
Heartbeat CPU 0 instructions: 17000002 cycles: 12205883 heartbeat IPC: 1.10182 cumulative IPC: 1.09609 (Simulation time: 0 hr 48 min 12 sec) 
Heartbeat CPU 0 instructions: 18000003 cycles: 13039997 heartbeat IPC: 1.19888 cumulative IPC: 1.10796 (Simulation time: 0 hr 51 min 0 sec) 
Heartbeat CPU 0 instructions: 19000000 cycles: 13830935 heartbeat IPC: 1.26432 cumulative IPC: 1.1234 (Simulation time: 0 hr 53 min 52 sec) 
Heartbeat CPU 0 instructions: 20000000 cycles: 14710692 heartbeat IPC: 1.13668 cumulative IPC: 1.12471 (Simulation time: 0 hr 56 min 52 sec) 
Heartbeat CPU 0 instructions: 21000000 cycles: 15606960 heartbeat IPC: 1.11574 cumulative IPC: 1.12389 (Simulation time: 0 hr 59 min 49 sec) 
Heartbeat CPU 0 instructions: 22000000 cycles: 16524087 heartbeat IPC: 1.09036 cumulative IPC: 1.12102 (Simulation time: 1 hr 2 min 27 sec) 
Heartbeat CPU 0 instructions: 23000003 cycles: 17388835 heartbeat IPC: 1.15641 cumulative IPC: 1.12366 (Simulation time: 1 hr 5 min 23 sec) 
Heartbeat CPU 0 instructions: 24000000 cycles: 18367724 heartbeat IPC: 1.02156 cumulative IPC: 1.1157 (Simulation time: 1 hr 8 min 27 sec) 
Heartbeat CPU 0 instructions: 25000000 cycles: 19390342 heartbeat IPC: 0.977882 cumulative IPC: 1.10531 (Simulation time: 1 hr 11 min 25 sec) 
Heartbeat CPU 0 instructions: 26000003 cycles: 20316999 heartbeat IPC: 1.07915 cumulative IPC: 1.10364 (Simulation time: 1 hr 14 min 24 sec) 
Heartbeat CPU 0 instructions: 27000003 cycles: 21293441 heartbeat IPC: 1.02413 cumulative IPC: 1.09862 (Simulation time: 1 hr 17 min 20 sec) 
Heartbeat CPU 0 instructions: 28000000 cycles: 22348988 heartbeat IPC: 0.947373 cumulative IPC: 1.08896 (Simulation time: 1 hr 20 min 10 sec) 
Heartbeat CPU 0 instructions: 29000003 cycles: 23941765 heartbeat IPC: 0.627836 cumulative IPC: 1.04844 (Simulation time: 1 hr 23 min 28 sec) 
Heartbeat CPU 0 instructions: 30000000 cycles: 25481317 heartbeat IPC: 0.649538 cumulative IPC: 1.0172 (Simulation time: 1 hr 26 min 37 sec) 
Heartbeat CPU 0 instructions: 31000003 cycles: 27580226 heartbeat IPC: 0.476439 cumulative IPC: 0.965042 (Simulation time: 1 hr 29 min 41 sec) 
Heartbeat CPU 0 instructions: 32000000 cycles: 29580506 heartbeat IPC: 0.499929 cumulative IPC: 0.925887 (Simulation time: 1 hr 32 min 40 sec) 
Heartbeat CPU 0 instructions: 33000001 cycles: 31036569 heartbeat IPC: 0.686784 cumulative IPC: 0.912081 (Simulation time: 1 hr 35 min 29 sec) 
Heartbeat CPU 0 instructions: 34000002 cycles: 32536252 heartbeat IPC: 0.666808 cumulative IPC: 0.898313 (Simulation time: 1 hr 38 min 39 sec) 
Heartbeat CPU 0 instructions: 35000001 cycles: 34083677 heartbeat IPC: 0.646234 cumulative IPC: 0.884512 (Simulation time: 1 hr 41 min 36 sec) 
Heartbeat CPU 0 instructions: 36000000 cycles: 34941030 heartbeat IPC: 1.16638 cumulative IPC: 0.892811 (Simulation time: 1 hr 44 min 26 sec) 
Heartbeat CPU 0 instructions: 37000001 cycles: 35822670 heartbeat IPC: 1.13425 cumulative IPC: 0.899905 (Simulation time: 1 hr 47 min 24 sec) 
Heartbeat CPU 0 instructions: 38000003 cycles: 36709939 heartbeat IPC: 1.12706 cumulative IPC: 0.90643 (Simulation time: 1 hr 50 min 21 sec) 
Heartbeat CPU 0 instructions: 39000002 cycles: 37646368 heartbeat IPC: 1.06789 cumulative IPC: 0.91118 (Simulation time: 1 hr 53 min 8 sec) 
Heartbeat CPU 0 instructions: 40000000 cycles: 38534018 heartbeat IPC: 1.12657 cumulative IPC: 0.917024 (Simulation time: 1 hr 56 min 0 sec) 
Heartbeat CPU 0 instructions: 41000000 cycles: 39473050 heartbeat IPC: 1.06493 cumulative IPC: 0.921151 (Simulation time: 1 hr 59 min 2 sec) 
Heartbeat CPU 0 instructions: 42000002 cycles: 40430680 heartbeat IPC: 1.04425 cumulative IPC: 0.924557 (Simulation time: 2 hr 2 min 1 sec) 
Heartbeat CPU 0 instructions: 43000002 cycles: 41404239 heartbeat IPC: 1.02716 cumulative IPC: 0.927364 (Simulation time: 2 hr 4 min 56 sec) 
Heartbeat CPU 0 instructions: 44000000 cycles: 42240852 heartbeat IPC: 1.19529 cumulative IPC: 0.933519 (Simulation time: 2 hr 7 min 49 sec) 
Heartbeat CPU 0 instructions: 45000000 cycles: 43038370 heartbeat IPC: 1.25389 cumulative IPC: 0.940384 (Simulation time: 2 hr 10 min 36 sec) 
Heartbeat CPU 0 instructions: 46000001 cycles: 43856806 heartbeat IPC: 1.22184 cumulative IPC: 0.94644 (Simulation time: 2 hr 13 min 22 sec) 
Heartbeat CPU 0 instructions: 47000001 cycles: 44705717 heartbeat IPC: 1.17798 cumulative IPC: 0.951494 (Simulation time: 2 hr 16 min 19 sec) 
Heartbeat CPU 0 instructions: 48000000 cycles: 45528864 heartbeat IPC: 1.21485 cumulative IPC: 0.956954 (Simulation time: 2 hr 19 min 6 sec) 
Heartbeat CPU 0 instructions: 49000001 cycles: 46369428 heartbeat IPC: 1.18968 cumulative IPC: 0.961778 (Simulation time: 2 hr 21 min 52 sec) 
Heartbeat CPU 0 instructions: 50000002 cycles: 47263160 heartbeat IPC: 1.1189 cumulative IPC: 0.965166 (Simulation time: 2 hr 24 min 35 sec) 
Heartbeat CPU 0 instructions: 51000001 cycles: 48160910 heartbeat IPC: 1.11389 cumulative IPC: 0.96832 (Simulation time: 2 hr 27 min 17 sec) 
Heartbeat CPU 0 instructions: 52000000 cycles: 49076325 heartbeat IPC: 1.0924 cumulative IPC: 0.970945 (Simulation time: 2 hr 30 min 19 sec) 
Heartbeat CPU 0 instructions: 53000002 cycles: 49970515 heartbeat IPC: 1.11833 cumulative IPC: 0.97393 (Simulation time: 2 hr 32 min 40 sec) 
Heartbeat CPU 0 instructions: 54000001 cycles: 50892781 heartbeat IPC: 1.08428 cumulative IPC: 0.976188 (Simulation time: 2 hr 34 min 53 sec) 
Heartbeat CPU 0 instructions: 55000001 cycles: 51824689 heartbeat IPC: 1.07307 cumulative IPC: 0.978151 (Simulation time: 2 hr 36 min 55 sec) 
Heartbeat CPU 0 instructions: 56000000 cycles: 52751630 heartbeat IPC: 1.07882 cumulative IPC: 0.980139 (Simulation time: 2 hr 39 min 6 sec) 
Heartbeat CPU 0 instructions: 57000001 cycles: 53730387 heartbeat IPC: 1.02171 cumulative IPC: 0.980988 (Simulation time: 2 hr 41 min 9 sec) 
Heartbeat CPU 0 instructions: 58000000 cycles: 54735334 heartbeat IPC: 0.995076 cumulative IPC: 0.981278 (Simulation time: 2 hr 43 min 16 sec) 
Heartbeat CPU 0 instructions: 59000001 cycles: 56444409 heartbeat IPC: 0.585112 cumulative IPC: 0.967903 (Simulation time: 2 hr 46 min 32 sec) 
Heartbeat CPU 0 instructions: 60000000 cycles: 58044520 heartbeat IPC: 0.624956 cumulative IPC: 0.957396 (Simulation time: 2 hr 49 min 0 sec) 
Heartbeat CPU 0 instructions: 61000000 cycles: 60356418 heartbeat IPC: 0.432545 cumulative IPC: 0.935147 (Simulation time: 2 hr 51 min 32 sec) 
Heartbeat CPU 0 instructions: 62000000 cycles: 62070756 heartbeat IPC: 0.583316 cumulative IPC: 0.924424 (Simulation time: 2 hr 53 min 58 sec) 
Heartbeat CPU 0 instructions: 63000001 cycles: 63565952 heartbeat IPC: 0.668809 cumulative IPC: 0.917806 (Simulation time: 2 hr 56 min 21 sec) 
Heartbeat CPU 0 instructions: 64000000 cycles: 65092161 heartbeat IPC: 0.655218 cumulative IPC: 0.911044 (Simulation time: 2 hr 58 min 43 sec) 
Heartbeat CPU 0 instructions: 65000003 cycles: 66586988 heartbeat IPC: 0.668976 cumulative IPC: 0.90509 (Simulation time: 3 hr 0 min 58 sec) 
Heartbeat CPU 0 instructions: 66000000 cycles: 68082595 heartbeat IPC: 0.668623 cumulative IPC: 0.899409 (Simulation time: 3 hr 3 min 32 sec) 
Heartbeat CPU 0 instructions: 67000000 cycles: 69577115 heartbeat IPC: 0.669111 cumulative IPC: 0.894011 (Simulation time: 3 hr 5 min 45 sec) 
Heartbeat CPU 0 instructions: 68000000 cycles: 71071571 heartbeat IPC: 0.66914 cumulative IPC: 0.888861 (Simulation time: 3 hr 8 min 10 sec) 
Heartbeat CPU 0 instructions: 69000000 cycles: 72579232 heartbeat IPC: 0.663279 cumulative IPC: 0.883766 (Simulation time: 3 hr 10 min 28 sec) 
Heartbeat CPU 0 instructions: 70000001 cycles: 74075812 heartbeat IPC: 0.668191 cumulative IPC: 0.87904 (Simulation time: 3 hr 12 min 49 sec) 
Heartbeat CPU 0 instructions: 71000001 cycles: 75570067 heartbeat IPC: 0.66923 cumulative IPC: 0.874545 (Simulation time: 3 hr 15 min 3 sec) 
Heartbeat CPU 0 instructions: 72000000 cycles: 77053017 heartbeat IPC: 0.674331 cumulative IPC: 0.870377 (Simulation time: 3 hr 17 min 26 sec) 
Heartbeat CPU 0 instructions: 73000003 cycles: 78540726 heartbeat IPC: 0.672176 cumulative IPC: 0.866322 (Simulation time: 3 hr 19 min 45 sec) 
Heartbeat CPU 0 instructions: 74000000 cycles: 80038254 heartbeat IPC: 0.667765 cumulative IPC: 0.862316 (Simulation time: 3 hr 21 min 55 sec) 
Heartbeat CPU 0 instructions: 75000001 cycles: 81532225 heartbeat IPC: 0.669358 cumulative IPC: 0.858508 (Simulation time: 3 hr 23 min 53 sec) 
Heartbeat CPU 0 instructions: 76000000 cycles: 83028657 heartbeat IPC: 0.668256 cumulative IPC: 0.854821 (Simulation time: 3 hr 26 min 9 sec) 
Heartbeat CPU 0 instructions: 77000003 cycles: 84522453 heartbeat IPC: 0.669437 cumulative IPC: 0.851302 (Simulation time: 3 hr 28 min 29 sec) 
Heartbeat CPU 0 instructions: 78000001 cycles: 86017145 heartbeat IPC: 0.669033 cumulative IPC: 0.847905 (Simulation time: 3 hr 30 min 50 sec) 
Heartbeat CPU 0 instructions: 79000000 cycles: 87513580 heartbeat IPC: 0.668254 cumulative IPC: 0.844615 (Simulation time: 3 hr 33 min 9 sec) 
Heartbeat CPU 0 instructions: 80000000 cycles: 89003961 heartbeat IPC: 0.670969 cumulative IPC: 0.841504 (Simulation time: 3 hr 35 min 14 sec) 
Heartbeat CPU 0 instructions: 81000001 cycles: 90487894 heartbeat IPC: 0.673886 cumulative IPC: 0.838566 (Simulation time: 3 hr 37 min 24 sec) 
Heartbeat CPU 0 instructions: 82000000 cycles: 91970857 heartbeat IPC: 0.674325 cumulative IPC: 0.835739 (Simulation time: 3 hr 39 min 40 sec) 
Heartbeat CPU 0 instructions: 83000000 cycles: 93454209 heartbeat IPC: 0.674149 cumulative IPC: 0.833003 (Simulation time: 3 hr 41 min 48 sec) 
Heartbeat CPU 0 instructions: 84000000 cycles: 94948998 heartbeat IPC: 0.668991 cumulative IPC: 0.830253 (Simulation time: 3 hr 43 min 57 sec) 
Heartbeat CPU 0 instructions: 85000000 cycles: 96443879 heartbeat IPC: 0.66895 cumulative IPC: 0.827592 (Simulation time: 3 hr 46 min 6 sec) 
Heartbeat CPU 0 instructions: 86000000 cycles: 97937644 heartbeat IPC: 0.669449 cumulative IPC: 0.825028 (Simulation time: 3 hr 48 min 4 sec) 
Heartbeat CPU 0 instructions: 87000000 cycles: 99432495 heartbeat IPC: 0.668963 cumulative IPC: 0.822536 (Simulation time: 3 hr 50 min 24 sec) 
Heartbeat CPU 0 instructions: 88000000 cycles: 100927707 heartbeat IPC: 0.668801 cumulative IPC: 0.820119 (Simulation time: 3 hr 52 min 34 sec) 
Heartbeat CPU 0 instructions: 89000002 cycles: 102423336 heartbeat IPC: 0.668616 cumulative IPC: 0.817773 (Simulation time: 3 hr 54 min 43 sec) 
Heartbeat CPU 0 instructions: 90000000 cycles: 103907670 heartbeat IPC: 0.673701 cumulative IPC: 0.815593 (Simulation time: 3 hr 56 min 41 sec) 
Heartbeat CPU 0 instructions: 91000000 cycles: 105391289 heartbeat IPC: 0.674028 cumulative IPC: 0.813484 (Simulation time: 3 hr 58 min 55 sec) 
Heartbeat CPU 0 instructions: 92000000 cycles: 106875129 heartbeat IPC: 0.673927 cumulative IPC: 0.811434 (Simulation time: 4 hr 1 min 4 sec) 
Heartbeat CPU 0 instructions: 93000000 cycles: 108364866 heartbeat IPC: 0.671259 cumulative IPC: 0.809398 (Simulation time: 4 hr 3 min 34 sec) 
Heartbeat CPU 0 instructions: 94000003 cycles: 109858721 heartbeat IPC: 0.669411 cumulative IPC: 0.807388 (Simulation time: 4 hr 5 min 47 sec) 
Heartbeat CPU 0 instructions: 95000000 cycles: 111354516 heartbeat IPC: 0.668539 cumulative IPC: 0.80542 (Simulation time: 4 hr 7 min 55 sec) 
Heartbeat CPU 0 instructions: 96000000 cycles: 112848469 heartbeat IPC: 0.669365 cumulative IPC: 0.803521 (Simulation time: 4 hr 9 min 58 sec) 
Heartbeat CPU 0 instructions: 97000001 cycles: 114344015 heartbeat IPC: 0.668653 cumulative IPC: 0.801662 (Simulation time: 4 hr 11 min 50 sec) 
Heartbeat CPU 0 instructions: 98000003 cycles: 115839372 heartbeat IPC: 0.668738 cumulative IPC: 0.799856 (Simulation time: 4 hr 13 min 38 sec) 
Heartbeat CPU 0 instructions: 99000000 cycles: 117328474 heartbeat IPC: 0.671544 cumulative IPC: 0.798142 (Simulation time: 4 hr 15 min 32 sec) 
Heartbeat CPU 0 instructions: 100000000 cycles: 118811865 heartbeat IPC: 0.674131 cumulative IPC: 0.796514 (Simulation time: 4 hr 17 min 24 sec) 
Heartbeat CPU 0 instructions: 101000000 cycles: 120295075 heartbeat IPC: 0.674213 cumulative IPC: 0.79493 (Simulation time: 4 hr 19 min 14 sec) 
Heartbeat CPU 0 instructions: 102000003 cycles: 121778659 heartbeat IPC: 0.674045 cumulative IPC: 0.793383 (Simulation time: 4 hr 21 min 7 sec) 
Heartbeat CPU 0 instructions: 103000003 cycles: 123274917 heartbeat IPC: 0.668334 cumulative IPC: 0.79179 (Simulation time: 4 hr 23 min 3 sec) 
Heartbeat CPU 0 instructions: 104000000 cycles: 124769456 heartbeat IPC: 0.669101 cumulative IPC: 0.790248 (Simulation time: 4 hr 24 min 59 sec) 
Heartbeat CPU 0 instructions: 105000000 cycles: 126264268 heartbeat IPC: 0.66898 cumulative IPC: 0.788743 (Simulation time: 4 hr 26 min 56 sec) 
Heartbeat CPU 0 instructions: 106000000 cycles: 127759330 heartbeat IPC: 0.668869 cumulative IPC: 0.787274 (Simulation time: 4 hr 28 min 51 sec) 
Heartbeat CPU 0 instructions: 107000000 cycles: 129255185 heartbeat IPC: 0.668514 cumulative IPC: 0.785834 (Simulation time: 4 hr 30 min 36 sec) 
Heartbeat CPU 0 instructions: 108000000 cycles: 130750764 heartbeat IPC: 0.668637 cumulative IPC: 0.784431 (Simulation time: 4 hr 32 min 22 sec) 
Heartbeat CPU 0 instructions: 109000003 cycles: 132233624 heartbeat IPC: 0.674375 cumulative IPC: 0.78314 (Simulation time: 4 hr 34 min 2 sec) 
Heartbeat CPU 0 instructions: 110000001 cycles: 133716813 heartbeat IPC: 0.674222 cumulative IPC: 0.781877 (Simulation time: 4 hr 35 min 34 sec) 
Finished CPU 0 instructions: 100000000 cycles: 127897296 cummulative IPC: 0.781877 (Simulation time: 4 hr 35 min 34 sec) 

ChampSim completed all CPUs

Region of Interest Statistics

CPU 0 cummulative IPC: 0.781877 instructions: 100000000 cycles: 127897296
LLC TOTAL     ACCESS:    1495530  HIT:     265070  MISS:    1230460
LLC LOAD      ACCESS:      88669  HIT:      24535  MISS:      64134
LLC RFO       ACCESS:     219209  HIT:      18585  MISS:     200624
LLC PREFETCH  ACCESS:     751507  HIT:     106610  MISS:     644897
LLC WRITEBACK ACCESS:     436145  HIT:     115340  MISS:     320805
