
*** ChampSim Multicore Out-of-Order Simulator ***

Warmup Instructions: 10000000
Simulation Instructions: 100000000
Configuration: 2
Number of CPUs: 1
LLC sets: 2048
LLC ways: 16
Off-chip DRAM Channels: 1 Width: 64-bit Data Rate: 1600 MT/s

CPU 0 runs /datasets/cs240c-wi22-a00-public/data/Assignment2-gz/soplex_205B.trace.gz
CPU 0 L1D next line prefetcher
CPU 0 L2C IP-based stride prefetcher
config 2, num_core 1, llc_sets 2048
Heartbeat CPU 0 instructions: 1000000 cycles: 395620 heartbeat IPC: 2.52768 cumulative IPC: 2.52768 (Simulation time: 0 hr 2 min 26 sec) 
Heartbeat CPU 0 instructions: 2000002 cycles: 924476 heartbeat IPC: 1.89088 cumulative IPC: 2.16339 (Simulation time: 0 hr 5 min 10 sec) 
Heartbeat CPU 0 instructions: 3000000 cycles: 1396885 heartbeat IPC: 2.11681 cumulative IPC: 2.14764 (Simulation time: 0 hr 8 min 10 sec) 
Heartbeat CPU 0 instructions: 4000000 cycles: 1758269 heartbeat IPC: 2.76714 cumulative IPC: 2.27496 (Simulation time: 0 hr 10 min 29 sec) 
Heartbeat CPU 0 instructions: 5000003 cycles: 2201678 heartbeat IPC: 2.25526 cumulative IPC: 2.271 (Simulation time: 0 hr 12 min 34 sec) 
Heartbeat CPU 0 instructions: 6000003 cycles: 2621819 heartbeat IPC: 2.38015 cumulative IPC: 2.28849 (Simulation time: 0 hr 14 min 58 sec) 
Heartbeat CPU 0 instructions: 7000000 cycles: 3006254 heartbeat IPC: 2.60121 cumulative IPC: 2.32848 (Simulation time: 0 hr 16 min 45 sec) 
Heartbeat CPU 0 instructions: 8000000 cycles: 3401605 heartbeat IPC: 2.5294 cumulative IPC: 2.35183 (Simulation time: 0 hr 18 min 37 sec) 
Heartbeat CPU 0 instructions: 9000003 cycles: 3925508 heartbeat IPC: 1.90876 cumulative IPC: 2.2927 (Simulation time: 0 hr 20 min 31 sec) 
Heartbeat CPU 0 instructions: 10000000 cycles: 4410765 heartbeat IPC: 2.06076 cumulative IPC: 2.26718 (Simulation time: 0 hr 22 min 39 sec) 

Warmup complete CPU 0 instructions: 10000004 cycles: 4410767 (Simulation time: 0 hr 22 min 39 sec) 

Heartbeat CPU 0 instructions: 11000001 cycles: 7045442 heartbeat IPC: 0.379554 cumulative IPC: 0.379552 (Simulation time: 0 hr 24 min 52 sec) 
Heartbeat CPU 0 instructions: 12000000 cycles: 9275755 heartbeat IPC: 0.448367 cumulative IPC: 0.4111 (Simulation time: 0 hr 27 min 28 sec) 
Heartbeat CPU 0 instructions: 13000000 cycles: 12933956 heartbeat IPC: 0.273358 cumulative IPC: 0.35198 (Simulation time: 0 hr 30 min 23 sec) 
Heartbeat CPU 0 instructions: 14000003 cycles: 14251090 heartbeat IPC: 0.759227 cumulative IPC: 0.406491 (Simulation time: 0 hr 31 min 56 sec) 
Heartbeat CPU 0 instructions: 15000000 cycles: 15990481 heartbeat IPC: 0.574912 cumulative IPC: 0.431789 (Simulation time: 0 hr 33 min 51 sec) 
Heartbeat CPU 0 instructions: 16000000 cycles: 19188927 heartbeat IPC: 0.312652 cumulative IPC: 0.406004 (Simulation time: 0 hr 36 min 38 sec) 
Heartbeat CPU 0 instructions: 17000001 cycles: 23029458 heartbeat IPC: 0.260381 cumulative IPC: 0.375966 (Simulation time: 0 hr 39 min 47 sec) 
Heartbeat CPU 0 instructions: 18000000 cycles: 29876452 heartbeat IPC: 0.146049 cumulative IPC: 0.314148 (Simulation time: 0 hr 43 min 47 sec) 
Heartbeat CPU 0 instructions: 19000003 cycles: 34640298 heartbeat IPC: 0.209915 cumulative IPC: 0.297722 (Simulation time: 0 hr 47 min 33 sec) 
Heartbeat CPU 0 instructions: 20000000 cycles: 36713464 heartbeat IPC: 0.482353 cumulative IPC: 0.309572 (Simulation time: 0 hr 50 min 38 sec) 
Heartbeat CPU 0 instructions: 21000001 cycles: 41715134 heartbeat IPC: 0.199933 cumulative IPC: 0.294872 (Simulation time: 0 hr 53 min 56 sec) 
Heartbeat CPU 0 instructions: 22000001 cycles: 46144383 heartbeat IPC: 0.225772 cumulative IPC: 0.287538 (Simulation time: 0 hr 56 min 45 sec) 
Heartbeat CPU 0 instructions: 23000002 cycles: 49406483 heartbeat IPC: 0.306551 cumulative IPC: 0.288916 (Simulation time: 0 hr 59 min 9 sec) 
Heartbeat CPU 0 instructions: 24000000 cycles: 53115147 heartbeat IPC: 0.269638 cumulative IPC: 0.287448 (Simulation time: 1 hr 1 min 54 sec) 
Heartbeat CPU 0 instructions: 25000000 cycles: 56860353 heartbeat IPC: 0.267008 cumulative IPC: 0.285989 (Simulation time: 1 hr 4 min 32 sec) 
Heartbeat CPU 0 instructions: 26000002 cycles: 60554155 heartbeat IPC: 0.270724 cumulative IPC: 0.284985 (Simulation time: 1 hr 7 min 27 sec) 
Heartbeat CPU 0 instructions: 27000000 cycles: 63136184 heartbeat IPC: 0.387292 cumulative IPC: 0.289483 (Simulation time: 1 hr 9 min 48 sec) 
Heartbeat CPU 0 instructions: 28000000 cycles: 66884945 heartbeat IPC: 0.266755 cumulative IPC: 0.288119 (Simulation time: 1 hr 13 min 16 sec) 
Heartbeat CPU 0 instructions: 29000000 cycles: 68896697 heartbeat IPC: 0.497079 cumulative IPC: 0.294638 (Simulation time: 1 hr 15 min 46 sec) 
Heartbeat CPU 0 instructions: 30000003 cycles: 69833357 heartbeat IPC: 1.06763 cumulative IPC: 0.305705 (Simulation time: 1 hr 17 min 40 sec) 
Heartbeat CPU 0 instructions: 31000003 cycles: 71244812 heartbeat IPC: 0.708489 cumulative IPC: 0.314211 (Simulation time: 1 hr 19 min 55 sec) 
Heartbeat CPU 0 instructions: 32000000 cycles: 74568827 heartbeat IPC: 0.30084 cumulative IPC: 0.313578 (Simulation time: 1 hr 22 min 36 sec) 
Heartbeat CPU 0 instructions: 33000000 cycles: 77573601 heartbeat IPC: 0.332804 cumulative IPC: 0.314367 (Simulation time: 1 hr 25 min 29 sec) 
Heartbeat CPU 0 instructions: 34000002 cycles: 79357226 heartbeat IPC: 0.560657 cumulative IPC: 0.320229 (Simulation time: 1 hr 27 min 33 sec) 
Heartbeat CPU 0 instructions: 35000003 cycles: 82093075 heartbeat IPC: 0.365518 cumulative IPC: 0.321824 (Simulation time: 1 hr 29 min 42 sec) 
Heartbeat CPU 0 instructions: 36000000 cycles: 84709739 heartbeat IPC: 0.382165 cumulative IPC: 0.32379 (Simulation time: 1 hr 32 min 37 sec) 
Heartbeat CPU 0 instructions: 37000000 cycles: 88993236 heartbeat IPC: 0.233454 cumulative IPC: 0.319215 (Simulation time: 1 hr 36 min 46 sec) 
Heartbeat CPU 0 instructions: 38000002 cycles: 90407505 heartbeat IPC: 0.70708 cumulative IPC: 0.325594 (Simulation time: 1 hr 39 min 4 sec) 
Heartbeat CPU 0 instructions: 39000003 cycles: 92454728 heartbeat IPC: 0.488467 cumulative IPC: 0.329381 (Simulation time: 1 hr 41 min 45 sec) 
Heartbeat CPU 0 instructions: 40000000 cycles: 95789448 heartbeat IPC: 0.299874 cumulative IPC: 0.328304 (Simulation time: 1 hr 45 min 3 sec) 
Heartbeat CPU 0 instructions: 41000000 cycles: 99162542 heartbeat IPC: 0.296464 cumulative IPC: 0.327171 (Simulation time: 1 hr 48 min 19 sec) 
Heartbeat CPU 0 instructions: 42000001 cycles: 100879154 heartbeat IPC: 0.582543 cumulative IPC: 0.331715 (Simulation time: 1 hr 51 min 18 sec) 
Heartbeat CPU 0 instructions: 43000000 cycles: 104682045 heartbeat IPC: 0.262958 cumulative IPC: 0.329107 (Simulation time: 1 hr 54 min 54 sec) 
Heartbeat CPU 0 instructions: 44000000 cycles: 107117668 heartbeat IPC: 0.410573 cumulative IPC: 0.331039 (Simulation time: 1 hr 57 min 45 sec) 
Heartbeat CPU 0 instructions: 45000001 cycles: 108446661 heartbeat IPC: 0.75245 cumulative IPC: 0.336422 (Simulation time: 2 hr 0 min 28 sec) 
Heartbeat CPU 0 instructions: 46000002 cycles: 111338373 heartbeat IPC: 0.345816 cumulative IPC: 0.336676 (Simulation time: 2 hr 3 min 35 sec) 
Heartbeat CPU 0 instructions: 47000000 cycles: 114646968 heartbeat IPC: 0.302242 cumulative IPC: 0.335643 (Simulation time: 2 hr 6 min 59 sec) 
Heartbeat CPU 0 instructions: 48000000 cycles: 117398081 heartbeat IPC: 0.363489 cumulative IPC: 0.336321 (Simulation time: 2 hr 10 min 30 sec) 
Heartbeat CPU 0 instructions: 49000001 cycles: 119345104 heartbeat IPC: 0.513605 cumulative IPC: 0.339324 (Simulation time: 2 hr 13 min 35 sec) 
Heartbeat CPU 0 instructions: 50000000 cycles: 122729709 heartbeat IPC: 0.295455 cumulative IPC: 0.338069 (Simulation time: 2 hr 17 min 20 sec) 
Heartbeat CPU 0 instructions: 51000003 cycles: 125193174 heartbeat IPC: 0.405933 cumulative IPC: 0.339453 (Simulation time: 2 hr 20 min 26 sec) 
Heartbeat CPU 0 instructions: 52000000 cycles: 126483375 heartbeat IPC: 0.775071 cumulative IPC: 0.344058 (Simulation time: 2 hr 22 min 55 sec) 
Heartbeat CPU 0 instructions: 53000003 cycles: 129295065 heartbeat IPC: 0.355659 cumulative IPC: 0.344319 (Simulation time: 2 hr 25 min 52 sec) 
Heartbeat CPU 0 instructions: 54000000 cycles: 132682643 heartbeat IPC: 0.295195 cumulative IPC: 0.343021 (Simulation time: 2 hr 29 min 13 sec) 
Heartbeat CPU 0 instructions: 55000001 cycles: 135669654 heartbeat IPC: 0.334783 cumulative IPC: 0.342834 (Simulation time: 2 hr 32 min 49 sec) 
Heartbeat CPU 0 instructions: 56000000 cycles: 137481125 heartbeat IPC: 0.552037 cumulative IPC: 0.345682 (Simulation time: 2 hr 35 min 45 sec) 
Heartbeat CPU 0 instructions: 57000000 cycles: 140880752 heartbeat IPC: 0.29415 cumulative IPC: 0.344398 (Simulation time: 2 hr 39 min 20 sec) 
Heartbeat CPU 0 instructions: 58000000 cycles: 143142323 heartbeat IPC: 0.442171 cumulative IPC: 0.345992 (Simulation time: 2 hr 42 min 5 sec) 
Heartbeat CPU 0 instructions: 59000001 cycles: 144422635 heartbeat IPC: 0.78106 cumulative IPC: 0.34997 (Simulation time: 2 hr 44 min 36 sec) 
Heartbeat CPU 0 instructions: 60000000 cycles: 147235317 heartbeat IPC: 0.355532 cumulative IPC: 0.35008 (Simulation time: 2 hr 47 min 51 sec) 
Heartbeat CPU 0 instructions: 61000003 cycles: 150694014 heartbeat IPC: 0.289127 cumulative IPC: 0.348639 (Simulation time: 2 hr 51 min 32 sec) 
Heartbeat CPU 0 instructions: 62000002 cycles: 153785905 heartbeat IPC: 0.323426 cumulative IPC: 0.348117 (Simulation time: 2 hr 54 min 48 sec) 
Heartbeat CPU 0 instructions: 63000001 cycles: 155435497 heartbeat IPC: 0.60621 cumulative IPC: 0.350936 (Simulation time: 2 hr 57 min 55 sec) 
Heartbeat CPU 0 instructions: 64000000 cycles: 159155286 heartbeat IPC: 0.268832 cumulative IPC: 0.348962 (Simulation time: 3 hr 1 min 36 sec) 
Heartbeat CPU 0 instructions: 65000001 cycles: 161060934 heartbeat IPC: 0.524756 cumulative IPC: 0.351101 (Simulation time: 3 hr 4 min 13 sec) 
Heartbeat CPU 0 instructions: 66000000 cycles: 162345245 heartbeat IPC: 0.778627 cumulative IPC: 0.354577 (Simulation time: 3 hr 6 min 49 sec) 
Heartbeat CPU 0 instructions: 67000003 cycles: 165172923 heartbeat IPC: 0.353648 cumulative IPC: 0.354561 (Simulation time: 3 hr 10 min 12 sec) 
Heartbeat CPU 0 instructions: 68000000 cycles: 168627692 heartbeat IPC: 0.289454 cumulative IPC: 0.353191 (Simulation time: 3 hr 13 min 45 sec) 
Heartbeat CPU 0 instructions: 69000001 cycles: 171282604 heartbeat IPC: 0.376661 cumulative IPC: 0.353565 (Simulation time: 3 hr 17 min 18 sec) 
Heartbeat CPU 0 instructions: 70000000 cycles: 173127082 heartbeat IPC: 0.542158 cumulative IPC: 0.355627 (Simulation time: 3 hr 20 min 14 sec) 
Heartbeat CPU 0 instructions: 71000001 cycles: 176530795 heartbeat IPC: 0.293797 cumulative IPC: 0.354404 (Simulation time: 3 hr 23 min 53 sec) 
Heartbeat CPU 0 instructions: 72000000 cycles: 178767609 heartbeat IPC: 0.447064 cumulative IPC: 0.355593 (Simulation time: 3 hr 27 min 3 sec) 
Heartbeat CPU 0 instructions: 73000000 cycles: 180046653 heartbeat IPC: 0.781834 cumulative IPC: 0.358697 (Simulation time: 3 hr 29 min 32 sec) 
Heartbeat CPU 0 instructions: 74000003 cycles: 182844176 heartbeat IPC: 0.35746 cumulative IPC: 0.358677 (Simulation time: 3 hr 33 min 4 sec) 
Heartbeat CPU 0 instructions: 75000000 cycles: 186313393 heartbeat IPC: 0.288249 cumulative IPC: 0.357334 (Simulation time: 3 hr 36 min 23 sec) 
Heartbeat CPU 0 instructions: 76000000 cycles: 189400758 heartbeat IPC: 0.323901 cumulative IPC: 0.356776 (Simulation time: 3 hr 39 min 39 sec) 
Heartbeat CPU 0 instructions: 77000000 cycles: 191018863 heartbeat IPC: 0.618007 cumulative IPC: 0.359041 (Simulation time: 3 hr 42 min 34 sec) 
Heartbeat CPU 0 instructions: 78000000 cycles: 194811439 heartbeat IPC: 0.263673 cumulative IPC: 0.357142 (Simulation time: 3 hr 46 min 6 sec) 
Heartbeat CPU 0 instructions: 79000002 cycles: 196618659 heartbeat IPC: 0.553337 cumulative IPC: 0.358986 (Simulation time: 3 hr 48 min 39 sec) 
Heartbeat CPU 0 instructions: 80000000 cycles: 197901314 heartbeat IPC: 0.779631 cumulative IPC: 0.361775 (Simulation time: 3 hr 51 min 1 sec) 
Heartbeat CPU 0 instructions: 81000000 cycles: 200731772 heartbeat IPC: 0.3533 cumulative IPC: 0.361653 (Simulation time: 3 hr 54 min 0 sec) 
Heartbeat CPU 0 instructions: 82000000 cycles: 204196001 heartbeat IPC: 0.288665 cumulative IPC: 0.360387 (Simulation time: 3 hr 57 min 24 sec) 
Heartbeat CPU 0 instructions: 83000000 cycles: 207328237 heartbeat IPC: 0.319261 cumulative IPC: 0.359752 (Simulation time: 4 hr 0 min 33 sec) 
Heartbeat CPU 0 instructions: 84000000 cycles: 209063336 heartbeat IPC: 0.576336 cumulative IPC: 0.361588 (Simulation time: 4 hr 3 min 19 sec) 
Heartbeat CPU 0 instructions: 85000000 cycles: 212997114 heartbeat IPC: 0.254209 cumulative IPC: 0.359563 (Simulation time: 4 hr 6 min 25 sec) 
Heartbeat CPU 0 instructions: 86000002 cycles: 214443285 heartbeat IPC: 0.691483 cumulative IPC: 0.361849 (Simulation time: 4 hr 8 min 31 sec) 
Heartbeat CPU 0 instructions: 87000002 cycles: 215716957 heartbeat IPC: 0.785132 cumulative IPC: 0.3644 (Simulation time: 4 hr 10 min 42 sec) 
Heartbeat CPU 0 instructions: 88000000 cycles: 218560668 heartbeat IPC: 0.351652 cumulative IPC: 0.364231 (Simulation time: 4 hr 13 min 14 sec) 
Heartbeat CPU 0 instructions: 89000003 cycles: 222316398 heartbeat IPC: 0.266261 cumulative IPC: 0.362542 (Simulation time: 4 hr 16 min 9 sec) 
Heartbeat CPU 0 instructions: 90000001 cycles: 225288148 heartbeat IPC: 0.336501 cumulative IPC: 0.362192 (Simulation time: 4 hr 18 min 35 sec) 
Heartbeat CPU 0 instructions: 91000002 cycles: 227155875 heartbeat IPC: 0.535411 cumulative IPC: 0.363644 (Simulation time: 4 hr 20 min 46 sec) 
Heartbeat CPU 0 instructions: 92000000 cycles: 230918838 heartbeat IPC: 0.265747 cumulative IPC: 0.362018 (Simulation time: 4 hr 23 min 21 sec) 
Heartbeat CPU 0 instructions: 93000000 cycles: 232216989 heartbeat IPC: 0.770326 cumulative IPC: 0.364345 (Simulation time: 4 hr 25 min 6 sec) 
Heartbeat CPU 0 instructions: 94000000 cycles: 233607358 heartbeat IPC: 0.719234 cumulative IPC: 0.366498 (Simulation time: 4 hr 26 min 59 sec) 
Heartbeat CPU 0 instructions: 95000002 cycles: 236546344 heartbeat IPC: 0.340254 cumulative IPC: 0.366165 (Simulation time: 4 hr 29 min 22 sec) 
Heartbeat CPU 0 instructions: 96000000 cycles: 239734809 heartbeat IPC: 0.31363 cumulative IPC: 0.365454 (Simulation time: 4 hr 31 min 52 sec) 
Heartbeat CPU 0 instructions: 97000003 cycles: 242318935 heartbeat IPC: 0.386979 cumulative IPC: 0.365687 (Simulation time: 4 hr 33 min 27 sec) 
Heartbeat CPU 0 instructions: 98000003 cycles: 244619037 heartbeat IPC: 0.434763 cumulative IPC: 0.366349 (Simulation time: 4 hr 35 min 19 sec) 
Heartbeat CPU 0 instructions: 99000000 cycles: 248090679 heartbeat IPC: 0.288047 cumulative IPC: 0.365233 (Simulation time: 4 hr 37 min 13 sec) 
Heartbeat CPU 0 instructions: 100000000 cycles: 249399752 heartbeat IPC: 0.763899 cumulative IPC: 0.367363 (Simulation time: 4 hr 38 min 24 sec) 
Heartbeat CPU 0 instructions: 101000003 cycles: 251337682 heartbeat IPC: 0.516016 cumulative IPC: 0.36853 (Simulation time: 4 hr 39 min 40 sec) 
Heartbeat CPU 0 instructions: 102000001 cycles: 254446655 heartbeat IPC: 0.321649 cumulative IPC: 0.367947 (Simulation time: 4 hr 41 min 20 sec) 
Heartbeat CPU 0 instructions: 103000000 cycles: 256764491 heartbeat IPC: 0.431436 cumulative IPC: 0.36853 (Simulation time: 4 hr 42 min 45 sec) 
Heartbeat CPU 0 instructions: 104000000 cycles: 266079687 heartbeat IPC: 0.107351 cumulative IPC: 0.359233 (Simulation time: 4 hr 44 min 13 sec) 
Heartbeat CPU 0 instructions: 105000000 cycles: 268257675 heartbeat IPC: 0.459139 cumulative IPC: 0.360057 (Simulation time: 4 hr 45 min 16 sec) 
Heartbeat CPU 0 instructions: 106000002 cycles: 272667235 heartbeat IPC: 0.22678 cumulative IPC: 0.357866 (Simulation time: 4 hr 46 min 21 sec) 
Heartbeat CPU 0 instructions: 107000003 cycles: 277289420 heartbeat IPC: 0.216348 cumulative IPC: 0.355469 (Simulation time: 4 hr 47 min 33 sec) 
Heartbeat CPU 0 instructions: 108000000 cycles: 280761430 heartbeat IPC: 0.288017 cumulative IPC: 0.354622 (Simulation time: 4 hr 48 min 26 sec) 
Heartbeat CPU 0 instructions: 109000000 cycles: 284032591 heartbeat IPC: 0.305702 cumulative IPC: 0.35405 (Simulation time: 4 hr 49 min 22 sec) 
Heartbeat CPU 0 instructions: 110000003 cycles: 287809806 heartbeat IPC: 0.264746 cumulative IPC: 0.352859 (Simulation time: 4 hr 50 min 12 sec) 
Finished CPU 0 instructions: 100000003 cycles: 283399040 cummulative IPC: 0.352859 (Simulation time: 4 hr 50 min 12 sec) 

ChampSim completed all CPUs

Region of Interest Statistics

CPU 0 cummulative IPC: 0.352859 instructions: 100000003 cycles: 283399040
LLC TOTAL     ACCESS:    8737039  HIT:    3759890  MISS:    4977149
LLC LOAD      ACCESS:    2233974  HIT:     900058  MISS:    1333916
LLC RFO       ACCESS:     871474  HIT:     363293  MISS:     508181
LLC PREFETCH  ACCESS:    3456773  HIT:    1177574  MISS:    2279199
LLC WRITEBACK ACCESS:    2174818  HIT:    1318965  MISS:     855853
