
*** ChampSim Multicore Out-of-Order Simulator ***

Warmup Instructions: 10000000
Simulation Instructions: 100000000
Configuration: 2
Number of CPUs: 1
LLC sets: 2048
LLC ways: 16
Off-chip DRAM Channels: 1 Width: 64-bit Data Rate: 1600 MT/s

CPU 0 runs /datasets/cs240c-wi22-a00-public/data/Assignment2-gz/libquantum_1735B.trace.gz
CPU 0 L1D next line prefetcher
CPU 0 L2C IP-based stride prefetcher
config 2, num_core 1, llc_sets 2048
Heartbeat CPU 0 instructions: 1000001 cycles: 333341 heartbeat IPC: 2.99993 cumulative IPC: 2.99993 (Simulation time: 0 hr 1 min 19 sec) 
Heartbeat CPU 0 instructions: 2000000 cycles: 666674 heartbeat IPC: 3 cumulative IPC: 2.99997 (Simulation time: 0 hr 2 min 31 sec) 
Heartbeat CPU 0 instructions: 3000000 cycles: 989045 heartbeat IPC: 3.10202 cumulative IPC: 3.03323 (Simulation time: 0 hr 3 min 51 sec) 
Heartbeat CPU 0 instructions: 4000000 cycles: 1290770 heartbeat IPC: 3.31428 cumulative IPC: 3.09893 (Simulation time: 0 hr 5 min 7 sec) 
Heartbeat CPU 0 instructions: 5000001 cycles: 1592495 heartbeat IPC: 3.31428 cumulative IPC: 3.13973 (Simulation time: 0 hr 6 min 24 sec) 
Heartbeat CPU 0 instructions: 6000001 cycles: 1894219 heartbeat IPC: 3.31429 cumulative IPC: 3.16753 (Simulation time: 0 hr 7 min 54 sec) 
Heartbeat CPU 0 instructions: 7000002 cycles: 2195942 heartbeat IPC: 3.3143 cumulative IPC: 3.1877 (Simulation time: 0 hr 9 min 18 sec) 
Heartbeat CPU 0 instructions: 8000000 cycles: 2501897 heartbeat IPC: 3.26845 cumulative IPC: 3.19757 (Simulation time: 0 hr 10 min 39 sec) 
Heartbeat CPU 0 instructions: 9000000 cycles: 2835230 heartbeat IPC: 3 cumulative IPC: 3.17435 (Simulation time: 0 hr 11 min 53 sec) 
Heartbeat CPU 0 instructions: 10000002 cycles: 3168564 heartbeat IPC: 3 cumulative IPC: 3.156 (Simulation time: 0 hr 13 min 6 sec) 

Warmup complete CPU 0 instructions: 10000002 cycles: 3168564 (Simulation time: 0 hr 13 min 6 sec) 

Heartbeat CPU 0 instructions: 11000001 cycles: 4593870 heartbeat IPC: 0.701603 cumulative IPC: 0.701603 (Simulation time: 0 hr 15 min 16 sec) 
Heartbeat CPU 0 instructions: 12000000 cycles: 6018722 heartbeat IPC: 0.701827 cumulative IPC: 0.701715 (Simulation time: 0 hr 17 min 36 sec) 
Heartbeat CPU 0 instructions: 13000001 cycles: 7839966 heartbeat IPC: 0.549076 cumulative IPC: 0.642205 (Simulation time: 0 hr 19 min 39 sec) 
Heartbeat CPU 0 instructions: 14000000 cycles: 10329688 heartbeat IPC: 0.401651 cumulative IPC: 0.558571 (Simulation time: 0 hr 21 min 35 sec) 
Heartbeat CPU 0 instructions: 15000000 cycles: 12812259 heartbeat IPC: 0.402808 cumulative IPC: 0.518473 (Simulation time: 0 hr 23 min 26 sec) 
Heartbeat CPU 0 instructions: 16000000 cycles: 15281018 heartbeat IPC: 0.405062 cumulative IPC: 0.495358 (Simulation time: 0 hr 25 min 11 sec) 
Heartbeat CPU 0 instructions: 17000002 cycles: 17765708 heartbeat IPC: 0.402465 cumulative IPC: 0.479546 (Simulation time: 0 hr 27 min 1 sec) 
Heartbeat CPU 0 instructions: 18000001 cycles: 19933792 heartbeat IPC: 0.461236 cumulative IPC: 0.477178 (Simulation time: 0 hr 28 min 58 sec) 
Heartbeat CPU 0 instructions: 19000000 cycles: 21433373 heartbeat IPC: 0.666852 cumulative IPC: 0.492751 (Simulation time: 0 hr 31 min 12 sec) 
Heartbeat CPU 0 instructions: 20000000 cycles: 22850774 heartbeat IPC: 0.705517 cumulative IPC: 0.508073 (Simulation time: 0 hr 33 min 15 sec) 
Heartbeat CPU 0 instructions: 21000001 cycles: 24356795 heartbeat IPC: 0.664002 cumulative IPC: 0.519156 (Simulation time: 0 hr 35 min 32 sec) 
Heartbeat CPU 0 instructions: 22000000 cycles: 25856301 heartbeat IPC: 0.666886 cumulative IPC: 0.52892 (Simulation time: 0 hr 37 min 45 sec) 
Heartbeat CPU 0 instructions: 23000000 cycles: 28042671 heartbeat IPC: 0.457379 cumulative IPC: 0.522632 (Simulation time: 0 hr 39 min 41 sec) 
Heartbeat CPU 0 instructions: 24000000 cycles: 30703730 heartbeat IPC: 0.37579 cumulative IPC: 0.508441 (Simulation time: 0 hr 41 min 28 sec) 
Heartbeat CPU 0 instructions: 25000000 cycles: 33372602 heartbeat IPC: 0.37469 cumulative IPC: 0.496622 (Simulation time: 0 hr 43 min 21 sec) 
Heartbeat CPU 0 instructions: 26000000 cycles: 36021354 heartbeat IPC: 0.377536 cumulative IPC: 0.487021 (Simulation time: 0 hr 45 min 9 sec) 
Heartbeat CPU 0 instructions: 27000001 cycles: 38687677 heartbeat IPC: 0.375049 cumulative IPC: 0.478616 (Simulation time: 0 hr 46 min 54 sec) 
Heartbeat CPU 0 instructions: 28000000 cycles: 40656499 heartbeat IPC: 0.507917 cumulative IPC: 0.480154 (Simulation time: 0 hr 49 min 0 sec) 
Heartbeat CPU 0 instructions: 29000000 cycles: 42078441 heartbeat IPC: 0.703264 cumulative IPC: 0.488308 (Simulation time: 0 hr 51 min 5 sec) 
Heartbeat CPU 0 instructions: 30000001 cycles: 43500262 heartbeat IPC: 0.703324 cumulative IPC: 0.495888 (Simulation time: 0 hr 53 min 43 sec) 
Heartbeat CPU 0 instructions: 31000000 cycles: 44922157 heartbeat IPC: 0.703286 cumulative IPC: 0.502951 (Simulation time: 0 hr 56 min 37 sec) 
Heartbeat CPU 0 instructions: 32000000 cycles: 46343973 heartbeat IPC: 0.703326 cumulative IPC: 0.509549 (Simulation time: 0 hr 59 min 42 sec) 
Heartbeat CPU 0 instructions: 33000002 cycles: 48386607 heartbeat IPC: 0.489565 cumulative IPC: 0.508646 (Simulation time: 1 hr 2 min 9 sec) 
Heartbeat CPU 0 instructions: 34000000 cycles: 50564832 heartbeat IPC: 0.459088 cumulative IPC: 0.506369 (Simulation time: 1 hr 4 min 43 sec) 
Heartbeat CPU 0 instructions: 35000000 cycles: 52725905 heartbeat IPC: 0.462733 cumulative IPC: 0.504466 (Simulation time: 1 hr 7 min 25 sec) 
Heartbeat CPU 0 instructions: 36000000 cycles: 54891941 heartbeat IPC: 0.461673 cumulative IPC: 0.502674 (Simulation time: 1 hr 9 min 53 sec) 
Heartbeat CPU 0 instructions: 37000002 cycles: 57066485 heartbeat IPC: 0.459867 cumulative IPC: 0.500947 (Simulation time: 1 hr 12 min 38 sec) 
Heartbeat CPU 0 instructions: 38000003 cycles: 58775153 heartbeat IPC: 0.585252 cumulative IPC: 0.503537 (Simulation time: 1 hr 15 min 30 sec) 
Heartbeat CPU 0 instructions: 39000000 cycles: 60186559 heartbeat IPC: 0.708511 cumulative IPC: 0.508611 (Simulation time: 1 hr 18 min 43 sec) 
Heartbeat CPU 0 instructions: 40000000 cycles: 61487768 heartbeat IPC: 0.768516 cumulative IPC: 0.51441 (Simulation time: 1 hr 21 min 35 sec) 
Heartbeat CPU 0 instructions: 41000000 cycles: 62893976 heartbeat IPC: 0.711132 cumulative IPC: 0.519042 (Simulation time: 1 hr 24 min 35 sec) 
Heartbeat CPU 0 instructions: 42000001 cycles: 64305381 heartbeat IPC: 0.708515 cumulative IPC: 0.523416 (Simulation time: 1 hr 27 min 20 sec) 
Heartbeat CPU 0 instructions: 43000000 cycles: 66301611 heartbeat IPC: 0.500944 cumulative IPC: 0.522706 (Simulation time: 1 hr 29 min 44 sec) 
Heartbeat CPU 0 instructions: 44000000 cycles: 68470120 heartbeat IPC: 0.461146 cumulative IPC: 0.520661 (Simulation time: 1 hr 32 min 27 sec) 
Heartbeat CPU 0 instructions: 45000001 cycles: 70633779 heartbeat IPC: 0.46218 cumulative IPC: 0.518786 (Simulation time: 1 hr 34 min 58 sec) 
Heartbeat CPU 0 instructions: 46000002 cycles: 72783871 heartbeat IPC: 0.465097 cumulative IPC: 0.517128 (Simulation time: 1 hr 37 min 24 sec) 
Heartbeat CPU 0 instructions: 47000000 cycles: 74953365 heartbeat IPC: 0.460936 cumulative IPC: 0.515429 (Simulation time: 1 hr 39 min 54 sec) 
Heartbeat CPU 0 instructions: 48000000 cycles: 76691002 heartbeat IPC: 0.575494 cumulative IPC: 0.516849 (Simulation time: 1 hr 42 min 50 sec) 
Heartbeat CPU 0 instructions: 49000002 cycles: 78210594 heartbeat IPC: 0.658073 cumulative IPC: 0.519709 (Simulation time: 1 hr 45 min 48 sec) 
Heartbeat CPU 0 instructions: 50000001 cycles: 79730062 heartbeat IPC: 0.658124 cumulative IPC: 0.522456 (Simulation time: 1 hr 48 min 25 sec) 
Heartbeat CPU 0 instructions: 51000000 cycles: 81249633 heartbeat IPC: 0.65808 cumulative IPC: 0.525095 (Simulation time: 1 hr 51 min 15 sec) 
Heartbeat CPU 0 instructions: 52000000 cycles: 82769307 heartbeat IPC: 0.658036 cumulative IPC: 0.527633 (Simulation time: 1 hr 54 min 10 sec) 
Heartbeat CPU 0 instructions: 53000002 cycles: 84289011 heartbeat IPC: 0.658024 cumulative IPC: 0.530076 (Simulation time: 1 hr 57 min 9 sec) 
Heartbeat CPU 0 instructions: 54000001 cycles: 85808151 heartbeat IPC: 0.658267 cumulative IPC: 0.532432 (Simulation time: 2 hr 0 min 15 sec) 
Heartbeat CPU 0 instructions: 55000000 cycles: 87327803 heartbeat IPC: 0.658045 cumulative IPC: 0.534701 (Simulation time: 2 hr 3 min 19 sec) 
Heartbeat CPU 0 instructions: 56000000 cycles: 88847272 heartbeat IPC: 0.658125 cumulative IPC: 0.536889 (Simulation time: 2 hr 6 min 32 sec) 
Heartbeat CPU 0 instructions: 57000000 cycles: 90366865 heartbeat IPC: 0.658071 cumulative IPC: 0.539001 (Simulation time: 2 hr 9 min 41 sec) 
Heartbeat CPU 0 instructions: 58000002 cycles: 91886336 heartbeat IPC: 0.658125 cumulative IPC: 0.541042 (Simulation time: 2 hr 12 min 36 sec) 
Heartbeat CPU 0 instructions: 59000001 cycles: 93301597 heartbeat IPC: 0.706583 cumulative IPC: 0.543641 (Simulation time: 2 hr 15 min 24 sec) 
Heartbeat CPU 0 instructions: 60000000 cycles: 94488461 heartbeat IPC: 0.842556 cumulative IPC: 0.547526 (Simulation time: 2 hr 18 min 11 sec) 
Heartbeat CPU 0 instructions: 61000003 cycles: 96008081 heartbeat IPC: 0.658061 cumulative IPC: 0.549335 (Simulation time: 2 hr 21 min 3 sec) 
Heartbeat CPU 0 instructions: 62000002 cycles: 97498774 heartbeat IPC: 0.670828 cumulative IPC: 0.551255 (Simulation time: 2 hr 24 min 11 sec) 
Heartbeat CPU 0 instructions: 63000001 cycles: 99018203 heartbeat IPC: 0.658141 cumulative IPC: 0.552949 (Simulation time: 2 hr 27 min 0 sec) 
Heartbeat CPU 0 instructions: 64000000 cycles: 100537590 heartbeat IPC: 0.658159 cumulative IPC: 0.554591 (Simulation time: 2 hr 30 min 7 sec) 
Heartbeat CPU 0 instructions: 65000001 cycles: 102057186 heartbeat IPC: 0.65807 cumulative IPC: 0.556181 (Simulation time: 2 hr 33 min 2 sec) 
Heartbeat CPU 0 instructions: 66000000 cycles: 103572518 heartbeat IPC: 0.659921 cumulative IPC: 0.557747 (Simulation time: 2 hr 35 min 47 sec) 
Heartbeat CPU 0 instructions: 67000001 cycles: 105058028 heartbeat IPC: 0.67317 cumulative IPC: 0.55943 (Simulation time: 2 hr 38 min 36 sec) 
Heartbeat CPU 0 instructions: 68000000 cycles: 106550151 heartbeat IPC: 0.670185 cumulative IPC: 0.561028 (Simulation time: 2 hr 41 min 36 sec) 
Heartbeat CPU 0 instructions: 69000002 cycles: 108042298 heartbeat IPC: 0.670177 cumulative IPC: 0.562581 (Simulation time: 2 hr 44 min 30 sec) 
Heartbeat CPU 0 instructions: 70000001 cycles: 109534519 heartbeat IPC: 0.670141 cumulative IPC: 0.56409 (Simulation time: 2 hr 47 min 11 sec) 
Heartbeat CPU 0 instructions: 71000003 cycles: 111086261 heartbeat IPC: 0.644438 cumulative IPC: 0.565246 (Simulation time: 2 hr 49 min 38 sec) 
Heartbeat CPU 0 instructions: 72000000 cycles: 113238073 heartbeat IPC: 0.464723 cumulative IPC: 0.56328 (Simulation time: 2 hr 51 min 30 sec) 
Heartbeat CPU 0 instructions: 73000000 cycles: 115407861 heartbeat IPC: 0.460875 cumulative IPC: 0.561301 (Simulation time: 2 hr 53 min 20 sec) 
Heartbeat CPU 0 instructions: 74000000 cycles: 117561370 heartbeat IPC: 0.464358 cumulative IPC: 0.559476 (Simulation time: 2 hr 55 min 20 sec) 
Heartbeat CPU 0 instructions: 75000000 cycles: 119721761 heartbeat IPC: 0.462879 cumulative IPC: 0.557685 (Simulation time: 2 hr 57 min 23 sec) 
Heartbeat CPU 0 instructions: 76000000 cycles: 121891656 heartbeat IPC: 0.460852 cumulative IPC: 0.555915 (Simulation time: 2 hr 59 min 22 sec) 
Heartbeat CPU 0 instructions: 77000001 cycles: 123483855 heartbeat IPC: 0.628063 cumulative IPC: 0.55687 (Simulation time: 3 hr 1 min 40 sec) 
Heartbeat CPU 0 instructions: 78000000 cycles: 124989005 heartbeat IPC: 0.664385 cumulative IPC: 0.558199 (Simulation time: 3 hr 4 min 7 sec) 
Heartbeat CPU 0 instructions: 79000001 cycles: 126086664 heartbeat IPC: 0.911031 cumulative IPC: 0.561349 (Simulation time: 3 hr 7 min 10 sec) 
Heartbeat CPU 0 instructions: 80000000 cycles: 127568110 heartbeat IPC: 0.675016 cumulative IPC: 0.562703 (Simulation time: 3 hr 10 min 14 sec) 
Heartbeat CPU 0 instructions: 81000002 cycles: 129169006 heartbeat IPC: 0.624651 cumulative IPC: 0.56349 (Simulation time: 3 hr 13 min 15 sec) 
Heartbeat CPU 0 instructions: 82000003 cycles: 131233836 heartbeat IPC: 0.484302 cumulative IPC: 0.562213 (Simulation time: 3 hr 15 min 56 sec) 
Heartbeat CPU 0 instructions: 83000000 cycles: 133389841 heartbeat IPC: 0.463819 cumulative IPC: 0.560584 (Simulation time: 3 hr 18 min 45 sec) 
Heartbeat CPU 0 instructions: 84000000 cycles: 135551844 heartbeat IPC: 0.462534 cumulative IPC: 0.558983 (Simulation time: 3 hr 21 min 21 sec) 
Heartbeat CPU 0 instructions: 85000002 cycles: 137702916 heartbeat IPC: 0.464885 cumulative IPC: 0.557478 (Simulation time: 3 hr 24 min 1 sec) 
Heartbeat CPU 0 instructions: 86000002 cycles: 139869875 heartbeat IPC: 0.461476 cumulative IPC: 0.555957 (Simulation time: 3 hr 26 min 40 sec) 
Heartbeat CPU 0 instructions: 87000002 cycles: 141487281 heartbeat IPC: 0.618274 cumulative IPC: 0.556685 (Simulation time: 3 hr 29 min 53 sec) 
Heartbeat CPU 0 instructions: 88000000 cycles: 143060375 heartbeat IPC: 0.635689 cumulative IPC: 0.557574 (Simulation time: 3 hr 32 min 51 sec) 
Heartbeat CPU 0 instructions: 89000000 cycles: 144633543 heartbeat IPC: 0.63566 cumulative IPC: 0.558442 (Simulation time: 3 hr 35 min 39 sec) 
Heartbeat CPU 0 instructions: 90000000 cycles: 146546390 heartbeat IPC: 0.522781 cumulative IPC: 0.557966 (Simulation time: 3 hr 38 min 33 sec) 
Heartbeat CPU 0 instructions: 91000001 cycles: 149307332 heartbeat IPC: 0.362196 cumulative IPC: 0.554268 (Simulation time: 3 hr 41 min 16 sec) 
Heartbeat CPU 0 instructions: 92000000 cycles: 152038585 heartbeat IPC: 0.366132 cumulative IPC: 0.550816 (Simulation time: 3 hr 44 min 11 sec) 
Heartbeat CPU 0 instructions: 93000001 cycles: 154781137 heartbeat IPC: 0.364624 cumulative IPC: 0.547448 (Simulation time: 3 hr 46 min 52 sec) 
Heartbeat CPU 0 instructions: 94000001 cycles: 157328516 heartbeat IPC: 0.39256 cumulative IPC: 0.544889 (Simulation time: 3 hr 49 min 29 sec) 
Heartbeat CPU 0 instructions: 95000000 cycles: 158900450 heartbeat IPC: 0.636158 cumulative IPC: 0.54581 (Simulation time: 3 hr 52 min 33 sec) 
Heartbeat CPU 0 instructions: 96000000 cycles: 160247821 heartbeat IPC: 0.742186 cumulative IPC: 0.547494 (Simulation time: 3 hr 55 min 14 sec) 
Heartbeat CPU 0 instructions: 97000002 cycles: 161803081 heartbeat IPC: 0.642981 cumulative IPC: 0.54843 (Simulation time: 3 hr 58 min 3 sec) 
Heartbeat CPU 0 instructions: 98000001 cycles: 163825474 heartbeat IPC: 0.494463 cumulative IPC: 0.547751 (Simulation time: 4 hr 0 min 40 sec) 
Heartbeat CPU 0 instructions: 99000003 cycles: 166535121 heartbeat IPC: 0.369052 cumulative IPC: 0.544787 (Simulation time: 4 hr 3 min 14 sec) 
Heartbeat CPU 0 instructions: 100000000 cycles: 169249670 heartbeat IPC: 0.368384 cumulative IPC: 0.541904 (Simulation time: 4 hr 5 min 42 sec) 
Heartbeat CPU 0 instructions: 101000000 cycles: 171946669 heartbeat IPC: 0.370782 cumulative IPC: 0.539169 (Simulation time: 4 hr 8 min 12 sec) 
Heartbeat CPU 0 instructions: 102000000 cycles: 174193938 heartbeat IPC: 0.444985 cumulative IPC: 0.537932 (Simulation time: 4 hr 10 min 35 sec) 
Heartbeat CPU 0 instructions: 103000002 cycles: 175664803 heartbeat IPC: 0.679873 cumulative IPC: 0.539142 (Simulation time: 4 hr 12 min 50 sec) 
Heartbeat CPU 0 instructions: 104000000 cycles: 177135739 heartbeat IPC: 0.679838 cumulative IPC: 0.540332 (Simulation time: 4 hr 15 min 18 sec) 
Heartbeat CPU 0 instructions: 105000000 cycles: 178606620 heartbeat IPC: 0.679865 cumulative IPC: 0.541502 (Simulation time: 4 hr 17 min 36 sec) 
Heartbeat CPU 0 instructions: 106000003 cycles: 180077579 heartbeat IPC: 0.679831 cumulative IPC: 0.542652 (Simulation time: 4 hr 19 min 47 sec) 
Heartbeat CPU 0 instructions: 107000000 cycles: 182220051 heartbeat IPC: 0.466749 cumulative IPC: 0.541744 (Simulation time: 4 hr 21 min 37 sec) 
Heartbeat CPU 0 instructions: 108000000 cycles: 184717037 heartbeat IPC: 0.400483 cumulative IPC: 0.539801 (Simulation time: 4 hr 23 min 30 sec) 
Heartbeat CPU 0 instructions: 109000002 cycles: 187197115 heartbeat IPC: 0.403214 cumulative IPC: 0.53796 (Simulation time: 4 hr 25 min 15 sec) 
Heartbeat CPU 0 instructions: 110000002 cycles: 189685747 heartbeat IPC: 0.401827 cumulative IPC: 0.536144 (Simulation time: 4 hr 26 min 56 sec) 
Finished CPU 0 instructions: 100000000 cycles: 186517183 cummulative IPC: 0.536144 (Simulation time: 4 hr 26 min 56 sec) 

ChampSim completed all CPUs

Region of Interest Statistics

CPU 0 cummulative IPC: 0.536144 instructions: 100000000 cycles: 186517183
LLC TOTAL     ACCESS:    3801551  HIT:     110806  MISS:    3690745
LLC LOAD      ACCESS:     656995  HIT:      29073  MISS:     627922
LLC RFO       ACCESS:         20  HIT:          6  MISS:         14
LLC PREFETCH  ACCESS:    2132431  HIT:      69749  MISS:    2062682
LLC WRITEBACK ACCESS:    1012105  HIT:      11978  MISS:    1000127
