
*** ChampSim Multicore Out-of-Order Simulator ***

Warmup Instructions: 10000000
Simulation Instructions: 100000000
Configuration: 2
Number of CPUs: 1
LLC sets: 2048
LLC ways: 16
Off-chip DRAM Channels: 1 Width: 64-bit Data Rate: 1600 MT/s

CPU 0 runs /datasets/cs240c-wi22-a00-public/data/Assignment2-gz/lbm_94B.trace.gz
CPU 0 L1D next line prefetcher
CPU 0 L2C IP-based stride prefetcher
config 2, num_core 1, llc_sets 2048
Heartbeat CPU 0 instructions: 1000000 cycles: 422068 heartbeat IPC: 2.36929 cumulative IPC: 2.36929 (Simulation time: 0 hr 3 min 2 sec) 
Heartbeat CPU 0 instructions: 2000000 cycles: 812399 heartbeat IPC: 2.56193 cumulative IPC: 2.46184 (Simulation time: 0 hr 6 min 10 sec) 
Heartbeat CPU 0 instructions: 3000000 cycles: 1211540 heartbeat IPC: 2.50538 cumulative IPC: 2.47619 (Simulation time: 0 hr 9 min 23 sec) 
Heartbeat CPU 0 instructions: 4000000 cycles: 1631537 heartbeat IPC: 2.38097 cumulative IPC: 2.45168 (Simulation time: 0 hr 12 min 39 sec) 
Heartbeat CPU 0 instructions: 5000001 cycles: 2021791 heartbeat IPC: 2.56244 cumulative IPC: 2.47306 (Simulation time: 0 hr 15 min 50 sec) 
Heartbeat CPU 0 instructions: 6000000 cycles: 2422471 heartbeat IPC: 2.49575 cumulative IPC: 2.47681 (Simulation time: 0 hr 18 min 46 sec) 
Heartbeat CPU 0 instructions: 7000001 cycles: 2840617 heartbeat IPC: 2.39151 cumulative IPC: 2.46425 (Simulation time: 0 hr 21 min 53 sec) 
Heartbeat CPU 0 instructions: 8000000 cycles: 3230855 heartbeat IPC: 2.56254 cumulative IPC: 2.47612 (Simulation time: 0 hr 24 min 37 sec) 
Heartbeat CPU 0 instructions: 9000003 cycles: 3631895 heartbeat IPC: 2.49352 cumulative IPC: 2.47805 (Simulation time: 0 hr 27 min 11 sec) 
Heartbeat CPU 0 instructions: 10000000 cycles: 4048472 heartbeat IPC: 2.40051 cumulative IPC: 2.47007 (Simulation time: 0 hr 29 min 40 sec) 

Warmup complete CPU 0 instructions: 10000004 cycles: 4048473 (Simulation time: 0 hr 29 min 40 sec) 

Heartbeat CPU 0 instructions: 11000003 cycles: 5457111 heartbeat IPC: 0.709907 cumulative IPC: 0.709905 (Simulation time: 0 hr 32 min 40 sec) 
Heartbeat CPU 0 instructions: 12000000 cycles: 7031055 heartbeat IPC: 0.635345 cumulative IPC: 0.670559 (Simulation time: 0 hr 35 min 47 sec) 
Heartbeat CPU 0 instructions: 13000000 cycles: 8497735 heartbeat IPC: 0.681812 cumulative IPC: 0.674268 (Simulation time: 0 hr 39 min 0 sec) 
Heartbeat CPU 0 instructions: 14000000 cycles: 9860037 heartbeat IPC: 0.734052 cumulative IPC: 0.688282 (Simulation time: 0 hr 42 min 3 sec) 
Heartbeat CPU 0 instructions: 15000003 cycles: 11446823 heartbeat IPC: 0.630207 cumulative IPC: 0.675826 (Simulation time: 0 hr 45 min 10 sec) 
Heartbeat CPU 0 instructions: 16000000 cycles: 12942655 heartbeat IPC: 0.668522 cumulative IPC: 0.674598 (Simulation time: 0 hr 48 min 33 sec) 
Heartbeat CPU 0 instructions: 17000001 cycles: 14258014 heartbeat IPC: 0.760249 cumulative IPC: 0.685633 (Simulation time: 0 hr 51 min 20 sec) 
Heartbeat CPU 0 instructions: 18000001 cycles: 15847912 heartbeat IPC: 0.628971 cumulative IPC: 0.677998 (Simulation time: 0 hr 54 min 20 sec) 
Heartbeat CPU 0 instructions: 19000000 cycles: 17412306 heartbeat IPC: 0.639225 cumulative IPC: 0.673459 (Simulation time: 0 hr 57 min 23 sec) 
Heartbeat CPU 0 instructions: 20000000 cycles: 18694213 heartbeat IPC: 0.780088 cumulative IPC: 0.682792 (Simulation time: 1 hr 0 min 23 sec) 
Heartbeat CPU 0 instructions: 21000001 cycles: 20248234 heartbeat IPC: 0.643493 cumulative IPC: 0.679022 (Simulation time: 1 hr 3 min 23 sec) 
Heartbeat CPU 0 instructions: 22000000 cycles: 21840712 heartbeat IPC: 0.627952 cumulative IPC: 0.674451 (Simulation time: 1 hr 6 min 38 sec) 
Heartbeat CPU 0 instructions: 23000000 cycles: 23064421 heartbeat IPC: 0.817188 cumulative IPC: 0.683636 (Simulation time: 1 hr 9 min 38 sec) 
Heartbeat CPU 0 instructions: 24000000 cycles: 24588950 heartbeat IPC: 0.65594 cumulative IPC: 0.681581 (Simulation time: 1 hr 12 min 51 sec) 
Heartbeat CPU 0 instructions: 25000000 cycles: 26230252 heartbeat IPC: 0.609272 cumulative IPC: 0.676231 (Simulation time: 1 hr 16 min 16 sec) 
Heartbeat CPU 0 instructions: 26000003 cycles: 27385021 heartbeat IPC: 0.865977 cumulative IPC: 0.68562 (Simulation time: 1 hr 19 min 12 sec) 
Heartbeat CPU 0 instructions: 27000002 cycles: 28887086 heartbeat IPC: 0.665749 cumulative IPC: 0.684418 (Simulation time: 1 hr 22 min 22 sec) 
Heartbeat CPU 0 instructions: 28000000 cycles: 30599878 heartbeat IPC: 0.583841 cumulative IPC: 0.67793 (Simulation time: 1 hr 25 min 57 sec) 
Heartbeat CPU 0 instructions: 29000000 cycles: 31758052 heartbeat IPC: 0.863428 cumulative IPC: 0.685683 (Simulation time: 1 hr 28 min 49 sec) 
Heartbeat CPU 0 instructions: 30000000 cycles: 33214314 heartbeat IPC: 0.68669 cumulative IPC: 0.685734 (Simulation time: 1 hr 31 min 47 sec) 
Heartbeat CPU 0 instructions: 31000003 cycles: 34935057 heartbeat IPC: 0.581146 cumulative IPC: 0.679907 (Simulation time: 1 hr 35 min 15 sec) 
Heartbeat CPU 0 instructions: 32000000 cycles: 36152587 heartbeat IPC: 0.821333 cumulative IPC: 0.68527 (Simulation time: 1 hr 38 min 12 sec) 
Heartbeat CPU 0 instructions: 33000000 cycles: 37510731 heartbeat IPC: 0.736299 cumulative IPC: 0.687341 (Simulation time: 1 hr 41 min 20 sec) 
Heartbeat CPU 0 instructions: 34000003 cycles: 39126290 heartbeat IPC: 0.618983 cumulative IPC: 0.684193 (Simulation time: 1 hr 44 min 24 sec) 
Heartbeat CPU 0 instructions: 35000003 cycles: 40479192 heartbeat IPC: 0.739152 cumulative IPC: 0.686234 (Simulation time: 1 hr 47 min 19 sec) 
Heartbeat CPU 0 instructions: 36000000 cycles: 41826265 heartbeat IPC: 0.742348 cumulative IPC: 0.688235 (Simulation time: 1 hr 50 min 6 sec) 
Heartbeat CPU 0 instructions: 37000003 cycles: 43393841 heartbeat IPC: 0.637929 cumulative IPC: 0.686231 (Simulation time: 1 hr 52 min 51 sec) 
Heartbeat CPU 0 instructions: 38000001 cycles: 44820428 heartbeat IPC: 0.700972 cumulative IPC: 0.686746 (Simulation time: 1 hr 55 min 51 sec) 
Heartbeat CPU 0 instructions: 39000002 cycles: 46135389 heartbeat IPC: 0.76048 cumulative IPC: 0.68905 (Simulation time: 1 hr 58 min 39 sec) 
Heartbeat CPU 0 instructions: 40000000 cycles: 47695428 heartbeat IPC: 0.641008 cumulative IPC: 0.687333 (Simulation time: 2 hr 1 min 58 sec) 
Heartbeat CPU 0 instructions: 41000003 cycles: 49212493 heartbeat IPC: 0.659169 cumulative IPC: 0.686387 (Simulation time: 2 hr 4 min 48 sec) 
Heartbeat CPU 0 instructions: 42000000 cycles: 50475607 heartbeat IPC: 0.791692 cumulative IPC: 0.689252 (Simulation time: 2 hr 7 min 53 sec) 
Heartbeat CPU 0 instructions: 43000001 cycles: 51888776 heartbeat IPC: 0.70763 cumulative IPC: 0.689795 (Simulation time: 2 hr 11 min 11 sec) 
Heartbeat CPU 0 instructions: 44000000 cycles: 53475752 heartbeat IPC: 0.630129 cumulative IPC: 0.687879 (Simulation time: 2 hr 14 min 0 sec) 
Heartbeat CPU 0 instructions: 45000002 cycles: 54808083 heartbeat IPC: 0.750566 cumulative IPC: 0.689525 (Simulation time: 2 hr 17 min 12 sec) 
Heartbeat CPU 0 instructions: 46000003 cycles: 56090068 heartbeat IPC: 0.780041 cumulative IPC: 0.691754 (Simulation time: 2 hr 20 min 1 sec) 
Heartbeat CPU 0 instructions: 47000001 cycles: 57645146 heartbeat IPC: 0.643053 cumulative IPC: 0.690341 (Simulation time: 2 hr 23 min 17 sec) 
Heartbeat CPU 0 instructions: 48000000 cycles: 59071472 heartbeat IPC: 0.701101 cumulative IPC: 0.69062 (Simulation time: 2 hr 26 min 27 sec) 
Heartbeat CPU 0 instructions: 49000000 cycles: 60372368 heartbeat IPC: 0.768701 cumulative IPC: 0.692424 (Simulation time: 2 hr 29 min 20 sec) 
Heartbeat CPU 0 instructions: 50000003 cycles: 61863502 heartbeat IPC: 0.670633 cumulative IPC: 0.691862 (Simulation time: 2 hr 32 min 25 sec) 
Heartbeat CPU 0 instructions: 51000003 cycles: 63316001 heartbeat IPC: 0.688469 cumulative IPC: 0.691778 (Simulation time: 2 hr 35 min 38 sec) 
Heartbeat CPU 0 instructions: 52000000 cycles: 64645927 heartbeat IPC: 0.751919 cumulative IPC: 0.693098 (Simulation time: 2 hr 38 min 36 sec) 
Heartbeat CPU 0 instructions: 53000001 cycles: 65980290 heartbeat IPC: 0.749422 cumulative IPC: 0.694312 (Simulation time: 2 hr 41 min 26 sec) 
Heartbeat CPU 0 instructions: 54000000 cycles: 67456204 heartbeat IPC: 0.677546 cumulative IPC: 0.693922 (Simulation time: 2 hr 44 min 34 sec) 
Heartbeat CPU 0 instructions: 55000003 cycles: 68878487 heartbeat IPC: 0.703097 cumulative IPC: 0.694123 (Simulation time: 2 hr 47 min 29 sec) 
Heartbeat CPU 0 instructions: 56000000 cycles: 70145208 heartbeat IPC: 0.789437 cumulative IPC: 0.69595 (Simulation time: 2 hr 50 min 43 sec) 
Heartbeat CPU 0 instructions: 57000003 cycles: 71521430 heartbeat IPC: 0.726629 cumulative IPC: 0.696575 (Simulation time: 2 hr 54 min 5 sec) 
Heartbeat CPU 0 instructions: 58000003 cycles: 72999105 heartbeat IPC: 0.676739 cumulative IPC: 0.69615 (Simulation time: 2 hr 57 min 2 sec) 
Heartbeat CPU 0 instructions: 59000002 cycles: 74344728 heartbeat IPC: 0.743149 cumulative IPC: 0.69705 (Simulation time: 3 hr 0 min 9 sec) 
Heartbeat CPU 0 instructions: 60000000 cycles: 75586342 heartbeat IPC: 0.805402 cumulative IPC: 0.69893 (Simulation time: 3 hr 3 min 8 sec) 
Heartbeat CPU 0 instructions: 61000000 cycles: 77045074 heartbeat IPC: 0.685527 cumulative IPC: 0.698663 (Simulation time: 3 hr 6 min 9 sec) 
Heartbeat CPU 0 instructions: 62000000 cycles: 78440722 heartbeat IPC: 0.716513 cumulative IPC: 0.698997 (Simulation time: 3 hr 9 min 4 sec) 
Heartbeat CPU 0 instructions: 63000001 cycles: 79765954 heartbeat IPC: 0.754586 cumulative IPC: 0.69997 (Simulation time: 3 hr 12 min 3 sec) 
Heartbeat CPU 0 instructions: 64000000 cycles: 81158110 heartbeat IPC: 0.71831 cumulative IPC: 0.700302 (Simulation time: 3 hr 15 min 6 sec) 
Heartbeat CPU 0 instructions: 65000003 cycles: 82634097 heartbeat IPC: 0.677515 cumulative IPC: 0.699874 (Simulation time: 3 hr 18 min 6 sec) 
Heartbeat CPU 0 instructions: 66000002 cycles: 83953080 heartbeat IPC: 0.758159 cumulative IPC: 0.700836 (Simulation time: 3 hr 21 min 3 sec) 
Heartbeat CPU 0 instructions: 67000000 cycles: 85292753 heartbeat IPC: 0.746449 cumulative IPC: 0.701588 (Simulation time: 3 hr 23 min 51 sec) 
Heartbeat CPU 0 instructions: 68000000 cycles: 86698830 heartbeat IPC: 0.711199 cumulative IPC: 0.701751 (Simulation time: 3 hr 26 min 53 sec) 
Heartbeat CPU 0 instructions: 69000000 cycles: 88120615 heartbeat IPC: 0.703341 cumulative IPC: 0.701778 (Simulation time: 3 hr 29 min 51 sec) 
Heartbeat CPU 0 instructions: 70000001 cycles: 89492597 heartbeat IPC: 0.728873 cumulative IPC: 0.702213 (Simulation time: 3 hr 32 min 54 sec) 
Heartbeat CPU 0 instructions: 71000001 cycles: 90857997 heartbeat IPC: 0.732386 cumulative IPC: 0.702688 (Simulation time: 3 hr 35 min 48 sec) 
Heartbeat CPU 0 instructions: 72000000 cycles: 92281134 heartbeat IPC: 0.702672 cumulative IPC: 0.702688 (Simulation time: 3 hr 38 min 27 sec) 
Heartbeat CPU 0 instructions: 73000001 cycles: 93681435 heartbeat IPC: 0.714133 cumulative IPC: 0.702866 (Simulation time: 3 hr 41 min 17 sec) 
Heartbeat CPU 0 instructions: 74000001 cycles: 94987908 heartbeat IPC: 0.76542 cumulative IPC: 0.703765 (Simulation time: 3 hr 43 min 59 sec) 
Heartbeat CPU 0 instructions: 75000000 cycles: 96375015 heartbeat IPC: 0.720924 cumulative IPC: 0.704023 (Simulation time: 3 hr 46 min 41 sec) 
Heartbeat CPU 0 instructions: 76000000 cycles: 97842361 heartbeat IPC: 0.681503 cumulative IPC: 0.703671 (Simulation time: 3 hr 49 min 29 sec) 
Heartbeat CPU 0 instructions: 77000002 cycles: 99130099 heartbeat IPC: 0.776557 cumulative IPC: 0.704658 (Simulation time: 3 hr 51 min 56 sec) 
Heartbeat CPU 0 instructions: 78000003 cycles: 100449954 heartbeat IPC: 0.75766 cumulative IPC: 0.705383 (Simulation time: 3 hr 54 min 36 sec) 
Heartbeat CPU 0 instructions: 79000000 cycles: 101899210 heartbeat IPC: 0.690007 cumulative IPC: 0.705156 (Simulation time: 3 hr 57 min 27 sec) 
Heartbeat CPU 0 instructions: 80000000 cycles: 103299791 heartbeat IPC: 0.713989 cumulative IPC: 0.70528 (Simulation time: 4 hr 0 min 17 sec) 
Heartbeat CPU 0 instructions: 81000000 cycles: 104602562 heartbeat IPC: 0.767595 cumulative IPC: 0.706088 (Simulation time: 4 hr 2 min 58 sec) 
Heartbeat CPU 0 instructions: 82000000 cycles: 105942807 heartbeat IPC: 0.746132 cumulative IPC: 0.706614 (Simulation time: 4 hr 5 min 23 sec) 
Heartbeat CPU 0 instructions: 83000003 cycles: 107390761 heartbeat IPC: 0.690632 cumulative IPC: 0.70639 (Simulation time: 4 hr 7 min 53 sec) 
Heartbeat CPU 0 instructions: 84000000 cycles: 108701271 heartbeat IPC: 0.763059 cumulative IPC: 0.7071 (Simulation time: 4 hr 10 min 27 sec) 
Heartbeat CPU 0 instructions: 85000001 cycles: 110013659 heartbeat IPC: 0.761971 cumulative IPC: 0.70778 (Simulation time: 4 hr 13 min 1 sec) 
Heartbeat CPU 0 instructions: 86000003 cycles: 111474594 heartbeat IPC: 0.684494 cumulative IPC: 0.707463 (Simulation time: 4 hr 15 min 20 sec) 
Heartbeat CPU 0 instructions: 87000000 cycles: 112827480 heartbeat IPC: 0.739158 cumulative IPC: 0.707857 (Simulation time: 4 hr 17 min 24 sec) 
Heartbeat CPU 0 instructions: 88000000 cycles: 114143377 heartbeat IPC: 0.759938 cumulative IPC: 0.70848 (Simulation time: 4 hr 19 min 28 sec) 
Heartbeat CPU 0 instructions: 89000003 cycles: 115459495 heartbeat IPC: 0.759813 cumulative IPC: 0.709086 (Simulation time: 4 hr 21 min 34 sec) 
Heartbeat CPU 0 instructions: 90000003 cycles: 116914192 heartbeat IPC: 0.687428 cumulative IPC: 0.708807 (Simulation time: 4 hr 23 min 37 sec) 
Heartbeat CPU 0 instructions: 91000002 cycles: 118260023 heartbeat IPC: 0.743035 cumulative IPC: 0.70921 (Simulation time: 4 hr 25 min 35 sec) 
Heartbeat CPU 0 instructions: 92000000 cycles: 119571234 heartbeat IPC: 0.762652 cumulative IPC: 0.709817 (Simulation time: 4 hr 27 min 22 sec) 
Heartbeat CPU 0 instructions: 93000003 cycles: 120991766 heartbeat IPC: 0.703964 cumulative IPC: 0.709746 (Simulation time: 4 hr 29 min 9 sec) 
Heartbeat CPU 0 instructions: 94000001 cycles: 122377467 heartbeat IPC: 0.721655 cumulative IPC: 0.709885 (Simulation time: 4 hr 30 min 48 sec) 
Heartbeat CPU 0 instructions: 95000001 cycles: 123700068 heartbeat IPC: 0.756086 cumulative IPC: 0.710396 (Simulation time: 4 hr 32 min 20 sec) 
Heartbeat CPU 0 instructions: 96000000 cycles: 125028045 heartbeat IPC: 0.753024 cumulative IPC: 0.710864 (Simulation time: 4 hr 33 min 45 sec) 
Heartbeat CPU 0 instructions: 97000000 cycles: 126463207 heartbeat IPC: 0.696785 cumulative IPC: 0.710699 (Simulation time: 4 hr 35 min 11 sec) 
Heartbeat CPU 0 instructions: 98000002 cycles: 127825682 heartbeat IPC: 0.73396 cumulative IPC: 0.710955 (Simulation time: 4 hr 36 min 29 sec) 
Heartbeat CPU 0 instructions: 99000001 cycles: 129138804 heartbeat IPC: 0.761543 cumulative IPC: 0.711486 (Simulation time: 4 hr 37 min 46 sec) 
Heartbeat CPU 0 instructions: 100000000 cycles: 130503616 heartbeat IPC: 0.732701 cumulative IPC: 0.711715 (Simulation time: 4 hr 39 min 4 sec) 
Heartbeat CPU 0 instructions: 101000003 cycles: 131906590 heartbeat IPC: 0.712774 cumulative IPC: 0.711726 (Simulation time: 4 hr 40 min 13 sec) 
Heartbeat CPU 0 instructions: 102000002 cycles: 133253502 heartbeat IPC: 0.742438 cumulative IPC: 0.712047 (Simulation time: 4 hr 41 min 22 sec) 
Heartbeat CPU 0 instructions: 103000000 cycles: 134631731 heartbeat IPC: 0.725567 cumulative IPC: 0.712189 (Simulation time: 4 hr 42 min 29 sec) 
Heartbeat CPU 0 instructions: 104000000 cycles: 135964222 heartbeat IPC: 0.750474 cumulative IPC: 0.712576 (Simulation time: 4 hr 43 min 31 sec) 
Heartbeat CPU 0 instructions: 105000002 cycles: 137366023 heartbeat IPC: 0.713369 cumulative IPC: 0.712584 (Simulation time: 4 hr 44 min 31 sec) 
Heartbeat CPU 0 instructions: 106000001 cycles: 138715730 heartbeat IPC: 0.740901 cumulative IPC: 0.712868 (Simulation time: 4 hr 45 min 30 sec) 
Heartbeat CPU 0 instructions: 107000000 cycles: 140080606 heartbeat IPC: 0.732667 cumulative IPC: 0.713067 (Simulation time: 4 hr 46 min 23 sec) 
Heartbeat CPU 0 instructions: 108000000 cycles: 141438614 heartbeat IPC: 0.736373 cumulative IPC: 0.713297 (Simulation time: 4 hr 47 min 11 sec) 
Heartbeat CPU 0 instructions: 109000002 cycles: 142784478 heartbeat IPC: 0.743019 cumulative IPC: 0.713585 (Simulation time: 4 hr 48 min 0 sec) 
Heartbeat CPU 0 instructions: 110000000 cycles: 144171477 heartbeat IPC: 0.72098 cumulative IPC: 0.713659 (Simulation time: 4 hr 48 min 47 sec) 
Finished CPU 0 instructions: 100000000 cycles: 140123005 cummulative IPC: 0.713659 (Simulation time: 4 hr 48 min 47 sec) 

ChampSim completed all CPUs

Region of Interest Statistics

CPU 0 cummulative IPC: 0.713659 instructions: 100000000 cycles: 140123005
LLC TOTAL     ACCESS:    5486660  HIT:    1382721  MISS:    4103939
LLC LOAD      ACCESS:     389131  HIT:         35  MISS:     389096
LLC RFO       ACCESS:    2345801  HIT:     524523  MISS:    1821278
LLC PREFETCH  ACCESS:     405600  HIT:          1  MISS:     405599
LLC WRITEBACK ACCESS:    2346128  HIT:     858162  MISS:    1487966
