
*** ChampSim Multicore Out-of-Order Simulator ***

Warmup Instructions: 10000000
Simulation Instructions: 100000000
Configuration: 2
Number of CPUs: 1
LLC sets: 2048
LLC ways: 16
Off-chip DRAM Channels: 1 Width: 64-bit Data Rate: 1600 MT/s

CPU 0 runs /datasets/cs240c-wi22-a00-public/data/Assignment2-gz/libquantum_1210B.trace.gz
CPU 0 L1D next line prefetcher
CPU 0 L2C IP-based stride prefetcher
config 2, num_core 1, llc_sets 2048
Heartbeat CPU 0 instructions: 1000003 cycles: 314916 heartbeat IPC: 3.17546 cumulative IPC: 3.17546 (Simulation time: 0 hr 1 min 29 sec) 
Heartbeat CPU 0 instructions: 2000000 cycles: 630170 heartbeat IPC: 3.17204 cumulative IPC: 3.17375 (Simulation time: 0 hr 3 min 0 sec) 
Heartbeat CPU 0 instructions: 3000001 cycles: 945979 heartbeat IPC: 3.16647 cumulative IPC: 3.17132 (Simulation time: 0 hr 4 min 19 sec) 
Heartbeat CPU 0 instructions: 4000000 cycles: 1260333 heartbeat IPC: 3.18112 cumulative IPC: 3.17376 (Simulation time: 0 hr 5 min 39 sec) 
Heartbeat CPU 0 instructions: 5000001 cycles: 1576818 heartbeat IPC: 3.15971 cumulative IPC: 3.17094 (Simulation time: 0 hr 6 min 51 sec) 
Heartbeat CPU 0 instructions: 6000002 cycles: 1891318 heartbeat IPC: 3.17965 cumulative IPC: 3.17239 (Simulation time: 0 hr 8 min 14 sec) 
Heartbeat CPU 0 instructions: 7000001 cycles: 2206981 heartbeat IPC: 3.16793 cumulative IPC: 3.17175 (Simulation time: 0 hr 9 min 28 sec) 
Heartbeat CPU 0 instructions: 8000000 cycles: 2522385 heartbeat IPC: 3.17053 cumulative IPC: 3.1716 (Simulation time: 0 hr 10 min 53 sec) 
Heartbeat CPU 0 instructions: 9000002 cycles: 2837144 heartbeat IPC: 3.17704 cumulative IPC: 3.1722 (Simulation time: 0 hr 12 min 21 sec) 
Heartbeat CPU 0 instructions: 10000003 cycles: 3153454 heartbeat IPC: 3.16146 cumulative IPC: 3.17113 (Simulation time: 0 hr 13 min 44 sec) 

Warmup complete CPU 0 instructions: 10000003 cycles: 3153454 (Simulation time: 0 hr 13 min 44 sec) 

Heartbeat CPU 0 instructions: 11000001 cycles: 5251101 heartbeat IPC: 0.476724 cumulative IPC: 0.476724 (Simulation time: 0 hr 15 min 58 sec) 
Heartbeat CPU 0 instructions: 12000000 cycles: 7289343 heartbeat IPC: 0.490618 cumulative IPC: 0.483571 (Simulation time: 0 hr 18 min 19 sec) 
Heartbeat CPU 0 instructions: 13000003 cycles: 9722940 heartbeat IPC: 0.410916 cumulative IPC: 0.456657 (Simulation time: 0 hr 20 min 24 sec) 
Heartbeat CPU 0 instructions: 14000001 cycles: 12198260 heartbeat IPC: 0.403987 cumulative IPC: 0.442243 (Simulation time: 0 hr 22 min 42 sec) 
Heartbeat CPU 0 instructions: 15000001 cycles: 14662763 heartbeat IPC: 0.405761 cumulative IPC: 0.434431 (Simulation time: 0 hr 25 min 1 sec) 
Heartbeat CPU 0 instructions: 16000000 cycles: 17154707 heartbeat IPC: 0.401293 cumulative IPC: 0.428533 (Simulation time: 0 hr 27 min 28 sec) 
Heartbeat CPU 0 instructions: 17000000 cycles: 19629471 heartbeat IPC: 0.404079 cumulative IPC: 0.42486 (Simulation time: 0 hr 30 min 5 sec) 
Heartbeat CPU 0 instructions: 18000002 cycles: 22123517 heartbeat IPC: 0.400956 cumulative IPC: 0.421717 (Simulation time: 0 hr 32 min 38 sec) 
Heartbeat CPU 0 instructions: 19000000 cycles: 24345924 heartbeat IPC: 0.449962 cumulative IPC: 0.424679 (Simulation time: 0 hr 34 min 54 sec) 
Heartbeat CPU 0 instructions: 20000000 cycles: 26792505 heartbeat IPC: 0.408734 cumulative IPC: 0.423029 (Simulation time: 0 hr 36 min 57 sec) 
Heartbeat CPU 0 instructions: 21000001 cycles: 29262822 heartbeat IPC: 0.404807 cumulative IPC: 0.421305 (Simulation time: 0 hr 38 min 51 sec) 
Heartbeat CPU 0 instructions: 22000003 cycles: 31726519 heartbeat IPC: 0.405895 cumulative IPC: 0.419976 (Simulation time: 0 hr 40 min 58 sec) 
Heartbeat CPU 0 instructions: 23000000 cycles: 34202215 heartbeat IPC: 0.403926 cumulative IPC: 0.418696 (Simulation time: 0 hr 42 min 51 sec) 
Heartbeat CPU 0 instructions: 24000000 cycles: 36689913 heartbeat IPC: 0.401978 cumulative IPC: 0.417456 (Simulation time: 0 hr 44 min 52 sec) 
Heartbeat CPU 0 instructions: 25000000 cycles: 39184233 heartbeat IPC: 0.400911 cumulative IPC: 0.416311 (Simulation time: 0 hr 47 min 3 sec) 
Heartbeat CPU 0 instructions: 26000000 cycles: 41671478 heartbeat IPC: 0.402051 cumulative IPC: 0.41539 (Simulation time: 0 hr 49 min 13 sec) 
Heartbeat CPU 0 instructions: 27000003 cycles: 44169562 heartbeat IPC: 0.400308 cumulative IPC: 0.414471 (Simulation time: 0 hr 51 min 56 sec) 
Heartbeat CPU 0 instructions: 28000000 cycles: 46532065 heartbeat IPC: 0.423279 cumulative IPC: 0.414951 (Simulation time: 0 hr 54 min 17 sec) 
Heartbeat CPU 0 instructions: 29000002 cycles: 48008290 heartbeat IPC: 0.677405 cumulative IPC: 0.423589 (Simulation time: 0 hr 56 min 25 sec) 
Heartbeat CPU 0 instructions: 30000001 cycles: 49479253 heartbeat IPC: 0.679826 cumulative IPC: 0.431725 (Simulation time: 0 hr 58 min 27 sec) 
Heartbeat CPU 0 instructions: 31000000 cycles: 50950319 heartbeat IPC: 0.679778 cumulative IPC: 0.439359 (Simulation time: 1 hr 0 min 22 sec) 
Heartbeat CPU 0 instructions: 32000000 cycles: 52421174 heartbeat IPC: 0.679877 cumulative IPC: 0.44654 (Simulation time: 1 hr 2 min 28 sec) 
Heartbeat CPU 0 instructions: 33000000 cycles: 53892054 heartbeat IPC: 0.679865 cumulative IPC: 0.453304 (Simulation time: 1 hr 4 min 36 sec) 
Heartbeat CPU 0 instructions: 34000002 cycles: 55363120 heartbeat IPC: 0.67978 cumulative IPC: 0.459685 (Simulation time: 1 hr 6 min 52 sec) 
Heartbeat CPU 0 instructions: 35000001 cycles: 56833984 heartbeat IPC: 0.679872 cumulative IPC: 0.465718 (Simulation time: 1 hr 8 min 59 sec) 
Heartbeat CPU 0 instructions: 36000000 cycles: 58061106 heartbeat IPC: 0.814914 cumulative IPC: 0.473522 (Simulation time: 1 hr 10 min 53 sec) 
Heartbeat CPU 0 instructions: 37000001 cycles: 59547884 heartbeat IPC: 0.672596 cumulative IPC: 0.478771 (Simulation time: 1 hr 12 min 49 sec) 
Heartbeat CPU 0 instructions: 38000002 cycles: 61018840 heartbeat IPC: 0.679831 cumulative IPC: 0.483882 (Simulation time: 1 hr 14 min 55 sec) 
Heartbeat CPU 0 instructions: 39000001 cycles: 62489704 heartbeat IPC: 0.679872 cumulative IPC: 0.48874 (Simulation time: 1 hr 16 min 56 sec) 
Heartbeat CPU 0 instructions: 40000000 cycles: 63960638 heartbeat IPC: 0.679839 cumulative IPC: 0.493363 (Simulation time: 1 hr 18 min 57 sec) 
Heartbeat CPU 0 instructions: 41000000 cycles: 65431616 heartbeat IPC: 0.67982 cumulative IPC: 0.497767 (Simulation time: 1 hr 20 min 46 sec) 
Heartbeat CPU 0 instructions: 42000000 cycles: 66902477 heartbeat IPC: 0.679874 cumulative IPC: 0.501968 (Simulation time: 1 hr 22 min 33 sec) 
Heartbeat CPU 0 instructions: 43000002 cycles: 68373342 heartbeat IPC: 0.679873 cumulative IPC: 0.505981 (Simulation time: 1 hr 24 min 27 sec) 
Heartbeat CPU 0 instructions: 44000000 cycles: 69844276 heartbeat IPC: 0.679839 cumulative IPC: 0.509815 (Simulation time: 1 hr 26 min 43 sec) 
Heartbeat CPU 0 instructions: 45000000 cycles: 71315258 heartbeat IPC: 0.679818 cumulative IPC: 0.513484 (Simulation time: 1 hr 28 min 48 sec) 
Heartbeat CPU 0 instructions: 46000003 cycles: 72786120 heartbeat IPC: 0.679875 cumulative IPC: 0.516999 (Simulation time: 1 hr 30 min 50 sec) 
Heartbeat CPU 0 instructions: 47000002 cycles: 74413523 heartbeat IPC: 0.614475 cumulative IPC: 0.519225 (Simulation time: 1 hr 32 min 40 sec) 
Heartbeat CPU 0 instructions: 48000000 cycles: 76628508 heartbeat IPC: 0.451469 cumulative IPC: 0.517182 (Simulation time: 1 hr 34 min 48 sec) 
Heartbeat CPU 0 instructions: 49000000 cycles: 78840544 heartbeat IPC: 0.452072 cumulative IPC: 0.515279 (Simulation time: 1 hr 36 min 43 sec) 
Heartbeat CPU 0 instructions: 50000003 cycles: 81064958 heartbeat IPC: 0.449558 cumulative IPC: 0.513403 (Simulation time: 1 hr 38 min 46 sec) 
Heartbeat CPU 0 instructions: 51000000 cycles: 83289943 heartbeat IPC: 0.44944 cumulative IPC: 0.511627 (Simulation time: 1 hr 41 min 11 sec) 
Heartbeat CPU 0 instructions: 52000000 cycles: 85516961 heartbeat IPC: 0.449031 cumulative IPC: 0.509935 (Simulation time: 1 hr 43 min 56 sec) 
Heartbeat CPU 0 instructions: 53000003 cycles: 87690447 heartbeat IPC: 0.460092 cumulative IPC: 0.508653 (Simulation time: 1 hr 46 min 45 sec) 
Heartbeat CPU 0 instructions: 54000003 cycles: 89509781 heartbeat IPC: 0.549652 cumulative IPC: 0.509517 (Simulation time: 1 hr 49 min 3 sec) 
Heartbeat CPU 0 instructions: 55000002 cycles: 91722718 heartbeat IPC: 0.451888 cumulative IPC: 0.508077 (Simulation time: 1 hr 51 min 18 sec) 
Heartbeat CPU 0 instructions: 56000000 cycles: 93964932 heartbeat IPC: 0.445987 cumulative IPC: 0.506544 (Simulation time: 1 hr 53 min 21 sec) 
Heartbeat CPU 0 instructions: 57000001 cycles: 96200995 heartbeat IPC: 0.447215 cumulative IPC: 0.505118 (Simulation time: 1 hr 55 min 22 sec) 
Heartbeat CPU 0 instructions: 58000000 cycles: 98423344 heartbeat IPC: 0.449974 cumulative IPC: 0.503832 (Simulation time: 1 hr 57 min 28 sec) 
Heartbeat CPU 0 instructions: 59000000 cycles: 100654698 heartbeat IPC: 0.448158 cumulative IPC: 0.502558 (Simulation time: 1 hr 59 min 24 sec) 
Heartbeat CPU 0 instructions: 60000000 cycles: 102866212 heartbeat IPC: 0.452179 cumulative IPC: 0.50144 (Simulation time: 2 hr 1 min 25 sec) 
Heartbeat CPU 0 instructions: 61000001 cycles: 105082953 heartbeat IPC: 0.451113 cumulative IPC: 0.500346 (Simulation time: 2 hr 3 min 21 sec) 
Heartbeat CPU 0 instructions: 62000000 cycles: 107313686 heartbeat IPC: 0.448283 cumulative IPC: 0.499231 (Simulation time: 2 hr 5 min 19 sec) 
Heartbeat CPU 0 instructions: 63000001 cycles: 109434511 heartbeat IPC: 0.471515 cumulative IPC: 0.498678 (Simulation time: 2 hr 7 min 8 sec) 
Heartbeat CPU 0 instructions: 64000000 cycles: 111511925 heartbeat IPC: 0.481367 cumulative IPC: 0.498346 (Simulation time: 2 hr 9 min 1 sec) 
Heartbeat CPU 0 instructions: 65000000 cycles: 113558340 heartbeat IPC: 0.488659 cumulative IPC: 0.498166 (Simulation time: 2 hr 10 min 57 sec) 
Heartbeat CPU 0 instructions: 66000001 cycles: 115629647 heartbeat IPC: 0.482787 cumulative IPC: 0.497883 (Simulation time: 2 hr 12 min 33 sec) 
Heartbeat CPU 0 instructions: 67000000 cycles: 117652527 heartbeat IPC: 0.494344 cumulative IPC: 0.497821 (Simulation time: 2 hr 14 min 31 sec) 
Heartbeat CPU 0 instructions: 68000000 cycles: 119726903 heartbeat IPC: 0.482073 cumulative IPC: 0.49754 (Simulation time: 2 hr 16 min 17 sec) 
Heartbeat CPU 0 instructions: 69000002 cycles: 121774313 heartbeat IPC: 0.488423 cumulative IPC: 0.497383 (Simulation time: 2 hr 17 min 59 sec) 
Heartbeat CPU 0 instructions: 70000001 cycles: 123846891 heartbeat IPC: 0.48249 cumulative IPC: 0.497127 (Simulation time: 2 hr 19 min 53 sec) 
Heartbeat CPU 0 instructions: 71000000 cycles: 125574006 heartbeat IPC: 0.579 cumulative IPC: 0.498282 (Simulation time: 2 hr 21 min 57 sec) 
Heartbeat CPU 0 instructions: 72000000 cycles: 127290980 heartbeat IPC: 0.58242 cumulative IPC: 0.499446 (Simulation time: 2 hr 23 min 53 sec) 
Heartbeat CPU 0 instructions: 73000002 cycles: 129368253 heartbeat IPC: 0.481401 cumulative IPC: 0.499149 (Simulation time: 2 hr 26 min 5 sec) 
Heartbeat CPU 0 instructions: 74000002 cycles: 131408135 heartbeat IPC: 0.490224 cumulative IPC: 0.499007 (Simulation time: 2 hr 28 min 15 sec) 
Heartbeat CPU 0 instructions: 75000001 cycles: 133480094 heartbeat IPC: 0.482635 cumulative IPC: 0.498747 (Simulation time: 2 hr 30 min 16 sec) 
Heartbeat CPU 0 instructions: 76000000 cycles: 135533180 heartbeat IPC: 0.487071 cumulative IPC: 0.498566 (Simulation time: 2 hr 32 min 8 sec) 
Heartbeat CPU 0 instructions: 77000000 cycles: 137572408 heartbeat IPC: 0.490382 cumulative IPC: 0.498442 (Simulation time: 2 hr 34 min 12 sec) 
Heartbeat CPU 0 instructions: 78000002 cycles: 139660172 heartbeat IPC: 0.478982 cumulative IPC: 0.498144 (Simulation time: 2 hr 36 min 24 sec) 
Heartbeat CPU 0 instructions: 79000001 cycles: 141696470 heartbeat IPC: 0.491087 cumulative IPC: 0.49804 (Simulation time: 2 hr 38 min 29 sec) 
Heartbeat CPU 0 instructions: 80000000 cycles: 143773750 heartbeat IPC: 0.481398 cumulative IPC: 0.497794 (Simulation time: 2 hr 40 min 48 sec) 
Heartbeat CPU 0 instructions: 81000000 cycles: 145831380 heartbeat IPC: 0.485996 cumulative IPC: 0.497624 (Simulation time: 2 hr 43 min 6 sec) 
Heartbeat CPU 0 instructions: 82000000 cycles: 147892620 heartbeat IPC: 0.485145 cumulative IPC: 0.497447 (Simulation time: 2 hr 44 min 43 sec) 
Heartbeat CPU 0 instructions: 83000001 cycles: 150171386 heartbeat IPC: 0.438834 cumulative IPC: 0.496538 (Simulation time: 2 hr 46 min 45 sec) 
Heartbeat CPU 0 instructions: 84000000 cycles: 152562206 heartbeat IPC: 0.418266 cumulative IPC: 0.495286 (Simulation time: 2 hr 48 min 54 sec) 
Heartbeat CPU 0 instructions: 85000001 cycles: 154949682 heartbeat IPC: 0.418853 cumulative IPC: 0.494083 (Simulation time: 2 hr 51 min 28 sec) 
Heartbeat CPU 0 instructions: 86000001 cycles: 157355335 heartbeat IPC: 0.415688 cumulative IPC: 0.49286 (Simulation time: 2 hr 53 min 47 sec) 
Heartbeat CPU 0 instructions: 87000003 cycles: 159756742 heartbeat IPC: 0.416423 cumulative IPC: 0.491688 (Simulation time: 2 hr 55 min 55 sec) 
Heartbeat CPU 0 instructions: 88000000 cycles: 162160840 heartbeat IPC: 0.415955 cumulative IPC: 0.490543 (Simulation time: 2 hr 58 min 4 sec) 
Heartbeat CPU 0 instructions: 89000001 cycles: 164400515 heartbeat IPC: 0.446494 cumulative IPC: 0.489931 (Simulation time: 2 hr 59 min 50 sec) 
Heartbeat CPU 0 instructions: 90000000 cycles: 166396751 heartbeat IPC: 0.500942 cumulative IPC: 0.490066 (Simulation time: 3 hr 1 min 54 sec) 
Heartbeat CPU 0 instructions: 91000002 cycles: 168785042 heartbeat IPC: 0.41871 cumulative IPC: 0.489037 (Simulation time: 3 hr 3 min 57 sec) 
Heartbeat CPU 0 instructions: 92000000 cycles: 171166904 heartbeat IPC: 0.419839 cumulative IPC: 0.488056 (Simulation time: 3 hr 6 min 36 sec) 
Heartbeat CPU 0 instructions: 93000003 cycles: 173557982 heartbeat IPC: 0.418223 cumulative IPC: 0.487076 (Simulation time: 3 hr 8 min 50 sec) 
Heartbeat CPU 0 instructions: 94000000 cycles: 175962577 heartbeat IPC: 0.415869 cumulative IPC: 0.486085 (Simulation time: 3 hr 11 min 18 sec) 
Heartbeat CPU 0 instructions: 95000002 cycles: 178374376 heartbeat IPC: 0.414629 cumulative IPC: 0.485102 (Simulation time: 3 hr 13 min 27 sec) 
Heartbeat CPU 0 instructions: 96000000 cycles: 180788841 heartbeat IPC: 0.41417 cumulative IPC: 0.484138 (Simulation time: 3 hr 15 min 45 sec) 
Heartbeat CPU 0 instructions: 97000001 cycles: 183199643 heartbeat IPC: 0.4148 cumulative IPC: 0.483209 (Simulation time: 3 hr 17 min 56 sec) 
Heartbeat CPU 0 instructions: 98000002 cycles: 185599015 heartbeat IPC: 0.416776 cumulative IPC: 0.482336 (Simulation time: 3 hr 19 min 56 sec) 
Heartbeat CPU 0 instructions: 99000002 cycles: 187179777 heartbeat IPC: 0.632606 cumulative IPC: 0.483626 (Simulation time: 3 hr 21 min 57 sec) 
Heartbeat CPU 0 instructions: 100000000 cycles: 188608514 heartbeat IPC: 0.699917 cumulative IPC: 0.485293 (Simulation time: 3 hr 23 min 44 sec) 
Heartbeat CPU 0 instructions: 101000000 cycles: 190035228 heartbeat IPC: 0.700911 cumulative IPC: 0.486939 (Simulation time: 3 hr 25 min 44 sec) 
Heartbeat CPU 0 instructions: 102000003 cycles: 191461822 heartbeat IPC: 0.700972 cumulative IPC: 0.48856 (Simulation time: 3 hr 27 min 49 sec) 
Heartbeat CPU 0 instructions: 103000002 cycles: 192888418 heartbeat IPC: 0.700969 cumulative IPC: 0.490157 (Simulation time: 3 hr 30 min 19 sec) 
Heartbeat CPU 0 instructions: 104000000 cycles: 194315082 heartbeat IPC: 0.700934 cumulative IPC: 0.49173 (Simulation time: 3 hr 32 min 49 sec) 
Heartbeat CPU 0 instructions: 105000000 cycles: 195741796 heartbeat IPC: 0.700911 cumulative IPC: 0.49328 (Simulation time: 3 hr 35 min 21 sec) 
Heartbeat CPU 0 instructions: 106000000 cycles: 197120382 heartbeat IPC: 0.725381 cumulative IPC: 0.49493 (Simulation time: 3 hr 37 min 36 sec) 
Heartbeat CPU 0 instructions: 107000000 cycles: 198277861 heartbeat IPC: 0.863947 cumulative IPC: 0.497119 (Simulation time: 3 hr 39 min 47 sec) 
Heartbeat CPU 0 instructions: 108000000 cycles: 199704522 heartbeat IPC: 0.700937 cumulative IPC: 0.498598 (Simulation time: 3 hr 41 min 58 sec) 
Heartbeat CPU 0 instructions: 109000001 cycles: 201131238 heartbeat IPC: 0.700911 cumulative IPC: 0.500056 (Simulation time: 3 hr 44 min 18 sec) 
Heartbeat CPU 0 instructions: 110000000 cycles: 202557830 heartbeat IPC: 0.700971 cumulative IPC: 0.501494 (Simulation time: 3 hr 46 min 43 sec) 
Finished CPU 0 instructions: 100000001 cycles: 199404380 cummulative IPC: 0.501494 (Simulation time: 3 hr 46 min 43 sec) 

ChampSim completed all CPUs

Region of Interest Statistics

CPU 0 cummulative IPC: 0.501494 instructions: 100000001 cycles: 199404380
LLC TOTAL     ACCESS:    4047262  HIT:     180841  MISS:    3866421
LLC LOAD      ACCESS:     836695  HIT:      35388  MISS:     801307
LLC RFO       ACCESS:         24  HIT:         12  MISS:         12
LLC PREFETCH  ACCESS:    2170107  HIT:      92874  MISS:    2077233
LLC WRITEBACK ACCESS:    1040436  HIT:      52567  MISS:     987869
