
*** ChampSim Multicore Out-of-Order Simulator ***

Warmup Instructions: 10000000
Simulation Instructions: 100000000
Configuration: 2
Number of CPUs: 1
LLC sets: 2048
LLC ways: 16
Off-chip DRAM Channels: 1 Width: 64-bit Data Rate: 1600 MT/s

CPU 0 runs /datasets/cs240c-wi22-a00-public/data/Assignment2-gz/omnetpp_4B.trace.gz
CPU 0 L1D next line prefetcher
CPU 0 L2C IP-based stride prefetcher
config 2, num_core 1, llc_sets 2048
Heartbeat CPU 0 instructions: 1000001 cycles: 567008 heartbeat IPC: 1.76365 cumulative IPC: 1.76365 (Simulation time: 0 hr 2 min 34 sec) 
Heartbeat CPU 0 instructions: 2000001 cycles: 1135958 heartbeat IPC: 1.75762 cumulative IPC: 1.76063 (Simulation time: 0 hr 5 min 12 sec) 
Heartbeat CPU 0 instructions: 3000001 cycles: 1723484 heartbeat IPC: 1.70205 cumulative IPC: 1.74066 (Simulation time: 0 hr 7 min 57 sec) 
Heartbeat CPU 0 instructions: 4000000 cycles: 2293207 heartbeat IPC: 1.75524 cumulative IPC: 1.74428 (Simulation time: 0 hr 10 min 34 sec) 
Heartbeat CPU 0 instructions: 5000000 cycles: 2867820 heartbeat IPC: 1.7403 cumulative IPC: 1.74348 (Simulation time: 0 hr 13 min 18 sec) 
Heartbeat CPU 0 instructions: 6000000 cycles: 3444495 heartbeat IPC: 1.73408 cumulative IPC: 1.74191 (Simulation time: 0 hr 16 min 3 sec) 
Heartbeat CPU 0 instructions: 7000000 cycles: 4014288 heartbeat IPC: 1.75502 cumulative IPC: 1.74377 (Simulation time: 0 hr 18 min 49 sec) 
Heartbeat CPU 0 instructions: 8000000 cycles: 4568073 heartbeat IPC: 1.80575 cumulative IPC: 1.75129 (Simulation time: 0 hr 21 min 24 sec) 
Heartbeat CPU 0 instructions: 9000001 cycles: 5150276 heartbeat IPC: 1.71762 cumulative IPC: 1.74748 (Simulation time: 0 hr 24 min 3 sec) 
Heartbeat CPU 0 instructions: 10000000 cycles: 5704242 heartbeat IPC: 1.80516 cumulative IPC: 1.75308 (Simulation time: 0 hr 26 min 43 sec) 

Warmup complete CPU 0 instructions: 10000003 cycles: 5704243 (Simulation time: 0 hr 26 min 43 sec) 

Heartbeat CPU 0 instructions: 11000000 cycles: 8845790 heartbeat IPC: 0.318314 cumulative IPC: 0.318314 (Simulation time: 0 hr 29 min 42 sec) 
Heartbeat CPU 0 instructions: 12000000 cycles: 10000871 heartbeat IPC: 0.86574 cumulative IPC: 0.465481 (Simulation time: 0 hr 32 min 9 sec) 
Heartbeat CPU 0 instructions: 13000003 cycles: 11145819 heartbeat IPC: 0.873405 cumulative IPC: 0.551311 (Simulation time: 0 hr 34 min 39 sec) 
Heartbeat CPU 0 instructions: 14000000 cycles: 12266010 heartbeat IPC: 0.892702 cumulative IPC: 0.609591 (Simulation time: 0 hr 37 min 0 sec) 
Heartbeat CPU 0 instructions: 15000000 cycles: 13405214 heartbeat IPC: 0.877806 cumulative IPC: 0.649268 (Simulation time: 0 hr 39 min 30 sec) 
Heartbeat CPU 0 instructions: 16000000 cycles: 16231901 heartbeat IPC: 0.353771 cumulative IPC: 0.569927 (Simulation time: 0 hr 42 min 18 sec) 
Heartbeat CPU 0 instructions: 17000003 cycles: 19081967 heartbeat IPC: 0.35087 cumulative IPC: 0.523258 (Simulation time: 0 hr 45 min 19 sec) 
Heartbeat CPU 0 instructions: 18000002 cycles: 21825694 heartbeat IPC: 0.364467 cumulative IPC: 0.496233 (Simulation time: 0 hr 48 min 26 sec) 
Heartbeat CPU 0 instructions: 19000002 cycles: 24630514 heartbeat IPC: 0.356529 cumulative IPC: 0.475529 (Simulation time: 0 hr 51 min 19 sec) 
Heartbeat CPU 0 instructions: 20000000 cycles: 27946518 heartbeat IPC: 0.301567 cumulative IPC: 0.449594 (Simulation time: 0 hr 54 min 5 sec) 
Heartbeat CPU 0 instructions: 21000000 cycles: 31243023 heartbeat IPC: 0.303352 cumulative IPC: 0.430717 (Simulation time: 0 hr 56 min 52 sec) 
Heartbeat CPU 0 instructions: 22000001 cycles: 34417353 heartbeat IPC: 0.315027 cumulative IPC: 0.417928 (Simulation time: 0 hr 59 min 34 sec) 
Heartbeat CPU 0 instructions: 23000000 cycles: 37249698 heartbeat IPC: 0.353064 cumulative IPC: 0.412104 (Simulation time: 1 hr 2 min 33 sec) 
Heartbeat CPU 0 instructions: 24000000 cycles: 40004014 heartbeat IPC: 0.363067 cumulative IPC: 0.408166 (Simulation time: 1 hr 5 min 8 sec) 
Heartbeat CPU 0 instructions: 25000000 cycles: 42765188 heartbeat IPC: 0.362165 cumulative IPC: 0.404739 (Simulation time: 1 hr 8 min 9 sec) 
Heartbeat CPU 0 instructions: 26000002 cycles: 45517710 heartbeat IPC: 0.363304 cumulative IPC: 0.401874 (Simulation time: 1 hr 11 min 1 sec) 
Heartbeat CPU 0 instructions: 27000001 cycles: 48317809 heartbeat IPC: 0.35713 cumulative IPC: 0.398934 (Simulation time: 1 hr 13 min 47 sec) 
Heartbeat CPU 0 instructions: 28000000 cycles: 51062918 heartbeat IPC: 0.364284 cumulative IPC: 0.396837 (Simulation time: 1 hr 16 min 18 sec) 
Heartbeat CPU 0 instructions: 29000001 cycles: 53892699 heartbeat IPC: 0.353385 cumulative IPC: 0.394285 (Simulation time: 1 hr 18 min 33 sec) 
Heartbeat CPU 0 instructions: 30000000 cycles: 56651768 heartbeat IPC: 0.362441 cumulative IPC: 0.392561 (Simulation time: 1 hr 20 min 56 sec) 
Heartbeat CPU 0 instructions: 31000002 cycles: 59401059 heartbeat IPC: 0.363731 cumulative IPC: 0.391085 (Simulation time: 1 hr 23 min 22 sec) 
Heartbeat CPU 0 instructions: 32000000 cycles: 62199571 heartbeat IPC: 0.357332 cumulative IPC: 0.389413 (Simulation time: 1 hr 25 min 59 sec) 
Heartbeat CPU 0 instructions: 33000000 cycles: 65351964 heartbeat IPC: 0.317219 cumulative IPC: 0.385597 (Simulation time: 1 hr 28 min 28 sec) 
Heartbeat CPU 0 instructions: 34000001 cycles: 68648615 heartbeat IPC: 0.303338 cumulative IPC: 0.381289 (Simulation time: 1 hr 30 min 39 sec) 
Heartbeat CPU 0 instructions: 35000001 cycles: 71671081 heartbeat IPC: 0.330856 cumulative IPC: 0.378978 (Simulation time: 1 hr 33 min 7 sec) 
Heartbeat CPU 0 instructions: 36000000 cycles: 74925233 heartbeat IPC: 0.307299 cumulative IPC: 0.375609 (Simulation time: 1 hr 35 min 40 sec) 
Heartbeat CPU 0 instructions: 37000001 cycles: 77713600 heartbeat IPC: 0.358633 cumulative IPC: 0.374951 (Simulation time: 1 hr 37 min 49 sec) 
Heartbeat CPU 0 instructions: 38000001 cycles: 80874656 heartbeat IPC: 0.31635 cumulative IPC: 0.372487 (Simulation time: 1 hr 40 min 2 sec) 
Heartbeat CPU 0 instructions: 39000001 cycles: 83378386 heartbeat IPC: 0.399404 cumulative IPC: 0.373355 (Simulation time: 1 hr 41 min 53 sec) 
Heartbeat CPU 0 instructions: 40000000 cycles: 84500201 heartbeat IPC: 0.891412 cumulative IPC: 0.38073 (Simulation time: 1 hr 43 min 49 sec) 
Heartbeat CPU 0 instructions: 41000001 cycles: 85626466 heartbeat IPC: 0.887891 cumulative IPC: 0.387877 (Simulation time: 1 hr 45 min 28 sec) 
Heartbeat CPU 0 instructions: 42000001 cycles: 86760784 heartbeat IPC: 0.881587 cumulative IPC: 0.394786 (Simulation time: 1 hr 47 min 13 sec) 
Heartbeat CPU 0 instructions: 43000002 cycles: 87974311 heartbeat IPC: 0.824045 cumulative IPC: 0.401118 (Simulation time: 1 hr 49 min 14 sec) 
Heartbeat CPU 0 instructions: 44000000 cycles: 90816330 heartbeat IPC: 0.351862 cumulative IPC: 0.399473 (Simulation time: 1 hr 51 min 23 sec) 
Heartbeat CPU 0 instructions: 45000000 cycles: 93682424 heartbeat IPC: 0.348907 cumulative IPC: 0.397826 (Simulation time: 1 hr 53 min 37 sec) 
Heartbeat CPU 0 instructions: 46000000 cycles: 97014148 heartbeat IPC: 0.300145 cumulative IPC: 0.394262 (Simulation time: 1 hr 56 min 5 sec) 
Heartbeat CPU 0 instructions: 47000000 cycles: 100331475 heartbeat IPC: 0.301448 cumulative IPC: 0.391008 (Simulation time: 1 hr 58 min 27 sec) 
Heartbeat CPU 0 instructions: 48000000 cycles: 103465693 heartbeat IPC: 0.319059 cumulative IPC: 0.388701 (Simulation time: 2 hr 0 min 37 sec) 
Heartbeat CPU 0 instructions: 49000000 cycles: 106333499 heartbeat IPC: 0.348699 cumulative IPC: 0.387561 (Simulation time: 2 hr 2 min 57 sec) 
Heartbeat CPU 0 instructions: 50000001 cycles: 109106858 heartbeat IPC: 0.360574 cumulative IPC: 0.386837 (Simulation time: 2 hr 5 min 23 sec) 
Heartbeat CPU 0 instructions: 51000003 cycles: 111892284 heartbeat IPC: 0.359012 cumulative IPC: 0.386108 (Simulation time: 2 hr 7 min 28 sec) 
Heartbeat CPU 0 instructions: 52000000 cycles: 114661515 heartbeat IPC: 0.36111 cumulative IPC: 0.385472 (Simulation time: 2 hr 9 min 31 sec) 
Heartbeat CPU 0 instructions: 53000003 cycles: 117439831 heartbeat IPC: 0.359931 cumulative IPC: 0.384837 (Simulation time: 2 hr 11 min 51 sec) 
Heartbeat CPU 0 instructions: 54000001 cycles: 120195465 heartbeat IPC: 0.362892 cumulative IPC: 0.384309 (Simulation time: 2 hr 14 min 27 sec) 
Heartbeat CPU 0 instructions: 55000001 cycles: 123096084 heartbeat IPC: 0.344754 cumulative IPC: 0.383332 (Simulation time: 2 hr 17 min 20 sec) 
Heartbeat CPU 0 instructions: 56000000 cycles: 125873312 heartbeat IPC: 0.360071 cumulative IPC: 0.382794 (Simulation time: 2 hr 20 min 3 sec) 
Heartbeat CPU 0 instructions: 57000003 cycles: 128639068 heartbeat IPC: 0.361566 cumulative IPC: 0.382316 (Simulation time: 2 hr 22 min 34 sec) 
Heartbeat CPU 0 instructions: 58000001 cycles: 131607522 heartbeat IPC: 0.336875 cumulative IPC: 0.381245 (Simulation time: 2 hr 25 min 16 sec) 
Heartbeat CPU 0 instructions: 59000001 cycles: 134877286 heartbeat IPC: 0.305832 cumulative IPC: 0.379336 (Simulation time: 2 hr 28 min 27 sec) 
Heartbeat CPU 0 instructions: 60000000 cycles: 137849961 heartbeat IPC: 0.336397 cumulative IPC: 0.37837 (Simulation time: 2 hr 31 min 14 sec) 
Heartbeat CPU 0 instructions: 61000001 cycles: 140898833 heartbeat IPC: 0.32799 cumulative IPC: 0.377234 (Simulation time: 2 hr 34 min 0 sec) 
Heartbeat CPU 0 instructions: 62000000 cycles: 144200208 heartbeat IPC: 0.302904 cumulative IPC: 0.375462 (Simulation time: 2 hr 36 min 59 sec) 
Heartbeat CPU 0 instructions: 63000001 cycles: 147017736 heartbeat IPC: 0.354921 cumulative IPC: 0.375053 (Simulation time: 2 hr 39 min 32 sec) 
Heartbeat CPU 0 instructions: 64000000 cycles: 149810538 heartbeat IPC: 0.358063 cumulative IPC: 0.374723 (Simulation time: 2 hr 42 min 11 sec) 
Heartbeat CPU 0 instructions: 65000001 cycles: 152600183 heartbeat IPC: 0.358469 cumulative IPC: 0.374415 (Simulation time: 2 hr 44 min 37 sec) 
Heartbeat CPU 0 instructions: 66000002 cycles: 156725052 heartbeat IPC: 0.242432 cumulative IPC: 0.37081 (Simulation time: 2 hr 47 min 51 sec) 
Heartbeat CPU 0 instructions: 67000001 cycles: 158369824 heartbeat IPC: 0.607986 cumulative IPC: 0.373365 (Simulation time: 2 hr 49 min 55 sec) 
Heartbeat CPU 0 instructions: 68000000 cycles: 159492963 heartbeat IPC: 0.890361 cumulative IPC: 0.377141 (Simulation time: 2 hr 52 min 0 sec) 
Heartbeat CPU 0 instructions: 69000003 cycles: 160635066 heartbeat IPC: 0.87558 cumulative IPC: 0.380815 (Simulation time: 2 hr 54 min 27 sec) 
Heartbeat CPU 0 instructions: 70000000 cycles: 161755467 heartbeat IPC: 0.892535 cumulative IPC: 0.384489 (Simulation time: 2 hr 57 min 2 sec) 
Heartbeat CPU 0 instructions: 71000001 cycles: 162930084 heartbeat IPC: 0.851342 cumulative IPC: 0.387977 (Simulation time: 2 hr 59 min 27 sec) 
Heartbeat CPU 0 instructions: 72000000 cycles: 166245208 heartbeat IPC: 0.301648 cumulative IPC: 0.386194 (Simulation time: 3 hr 2 min 10 sec) 
Heartbeat CPU 0 instructions: 73000000 cycles: 169633414 heartbeat IPC: 0.295141 cumulative IPC: 0.384312 (Simulation time: 3 hr 4 min 24 sec) 
Heartbeat CPU 0 instructions: 74000001 cycles: 172951907 heartbeat IPC: 0.301342 cumulative IPC: 0.382666 (Simulation time: 3 hr 6 min 36 sec) 
Heartbeat CPU 0 instructions: 75000001 cycles: 175832249 heartbeat IPC: 0.347181 cumulative IPC: 0.382065 (Simulation time: 3 hr 8 min 28 sec) 
Heartbeat CPU 0 instructions: 76000000 cycles: 178613315 heartbeat IPC: 0.359574 cumulative IPC: 0.381703 (Simulation time: 3 hr 10 min 45 sec) 
Heartbeat CPU 0 instructions: 77000000 cycles: 181405231 heartbeat IPC: 0.358177 cumulative IPC: 0.38133 (Simulation time: 3 hr 12 min 47 sec) 
Heartbeat CPU 0 instructions: 78000001 cycles: 184199285 heartbeat IPC: 0.357903 cumulative IPC: 0.380963 (Simulation time: 3 hr 14 min 52 sec) 
Heartbeat CPU 0 instructions: 79000001 cycles: 186991658 heartbeat IPC: 0.358118 cumulative IPC: 0.380611 (Simulation time: 3 hr 16 min 57 sec) 
Heartbeat CPU 0 instructions: 80000000 cycles: 189764525 heartbeat IPC: 0.360637 cumulative IPC: 0.38031 (Simulation time: 3 hr 18 min 52 sec) 
Heartbeat CPU 0 instructions: 81000002 cycles: 192611559 heartbeat IPC: 0.351243 cumulative IPC: 0.379867 (Simulation time: 3 hr 21 min 1 sec) 
Heartbeat CPU 0 instructions: 82000001 cycles: 195381794 heartbeat IPC: 0.36098 cumulative IPC: 0.379592 (Simulation time: 3 hr 23 min 14 sec) 
Heartbeat CPU 0 instructions: 83000002 cycles: 198199843 heartbeat IPC: 0.354856 cumulative IPC: 0.379229 (Simulation time: 3 hr 25 min 18 sec) 
Heartbeat CPU 0 instructions: 84000000 cycles: 201040792 heartbeat IPC: 0.351994 cumulative IPC: 0.378833 (Simulation time: 3 hr 27 min 15 sec) 
Heartbeat CPU 0 instructions: 85000002 cycles: 204331538 heartbeat IPC: 0.303883 cumulative IPC: 0.377592 (Simulation time: 3 hr 29 min 30 sec) 
Heartbeat CPU 0 instructions: 86000002 cycles: 207619801 heartbeat IPC: 0.304112 cumulative IPC: 0.376395 (Simulation time: 3 hr 31 min 33 sec) 
Heartbeat CPU 0 instructions: 87000000 cycles: 210622952 heartbeat IPC: 0.332983 cumulative IPC: 0.375759 (Simulation time: 3 hr 33 min 35 sec) 
Heartbeat CPU 0 instructions: 88000000 cycles: 213615039 heartbeat IPC: 0.334215 cumulative IPC: 0.375161 (Simulation time: 3 hr 35 min 27 sec) 
Heartbeat CPU 0 instructions: 89000002 cycles: 216678671 heartbeat IPC: 0.326411 cumulative IPC: 0.374453 (Simulation time: 3 hr 37 min 30 sec) 
Heartbeat CPU 0 instructions: 90000001 cycles: 219453657 heartbeat IPC: 0.360362 cumulative IPC: 0.37427 (Simulation time: 3 hr 39 min 23 sec) 
Heartbeat CPU 0 instructions: 91000001 cycles: 222248061 heartbeat IPC: 0.357858 cumulative IPC: 0.374058 (Simulation time: 3 hr 41 min 12 sec) 
Heartbeat CPU 0 instructions: 92000000 cycles: 225136609 heartbeat IPC: 0.346194 cumulative IPC: 0.373691 (Simulation time: 3 hr 43 min 16 sec) 
Heartbeat CPU 0 instructions: 93000000 cycles: 227942387 heartbeat IPC: 0.356407 cumulative IPC: 0.373473 (Simulation time: 3 hr 45 min 11 sec) 
Heartbeat CPU 0 instructions: 94000000 cycles: 232451030 heartbeat IPC: 0.221796 cumulative IPC: 0.370457 (Simulation time: 3 hr 47 min 15 sec) 
Heartbeat CPU 0 instructions: 95000000 cycles: 233631355 heartbeat IPC: 0.847224 cumulative IPC: 0.372926 (Simulation time: 3 hr 48 min 46 sec) 
Heartbeat CPU 0 instructions: 96000000 cycles: 234774320 heartbeat IPC: 0.874917 cumulative IPC: 0.375431 (Simulation time: 3 hr 50 min 19 sec) 
Heartbeat CPU 0 instructions: 97000002 cycles: 235893028 heartbeat IPC: 0.89389 cumulative IPC: 0.377951 (Simulation time: 3 hr 51 min 52 sec) 
Heartbeat CPU 0 instructions: 98000001 cycles: 237035012 heartbeat IPC: 0.875668 cumulative IPC: 0.380408 (Simulation time: 3 hr 53 min 29 sec) 
Heartbeat CPU 0 instructions: 99000002 cycles: 238909580 heartbeat IPC: 0.533457 cumulative IPC: 0.381638 (Simulation time: 3 hr 55 min 21 sec) 
Heartbeat CPU 0 instructions: 100000000 cycles: 242293821 heartbeat IPC: 0.295487 cumulative IPC: 0.380406 (Simulation time: 3 hr 57 min 18 sec) 
Heartbeat CPU 0 instructions: 101000002 cycles: 245357755 heartbeat IPC: 0.326378 cumulative IPC: 0.379715 (Simulation time: 3 hr 59 min 21 sec) 
Heartbeat CPU 0 instructions: 102000001 cycles: 248323253 heartbeat IPC: 0.337211 cumulative IPC: 0.379195 (Simulation time: 4 hr 1 min 32 sec) 
Heartbeat CPU 0 instructions: 103000000 cycles: 251123447 heartbeat IPC: 0.357118 cumulative IPC: 0.378943 (Simulation time: 4 hr 3 min 18 sec) 
Heartbeat CPU 0 instructions: 104000000 cycles: 253931083 heartbeat IPC: 0.356172 cumulative IPC: 0.378686 (Simulation time: 4 hr 5 min 2 sec) 
Heartbeat CPU 0 instructions: 105000001 cycles: 256718765 heartbeat IPC: 0.358721 cumulative IPC: 0.378464 (Simulation time: 4 hr 6 min 52 sec) 
Heartbeat CPU 0 instructions: 106000000 cycles: 259612234 heartbeat IPC: 0.345606 cumulative IPC: 0.37809 (Simulation time: 4 hr 8 min 42 sec) 
Heartbeat CPU 0 instructions: 107000002 cycles: 262407454 heartbeat IPC: 0.357754 cumulative IPC: 0.377868 (Simulation time: 4 hr 10 min 24 sec) 
Heartbeat CPU 0 instructions: 108000000 cycles: 265200300 heartbeat IPC: 0.358057 cumulative IPC: 0.377655 (Simulation time: 4 hr 12 min 6 sec) 
Heartbeat CPU 0 instructions: 109000002 cycles: 267982885 heartbeat IPC: 0.359379 cumulative IPC: 0.377461 (Simulation time: 4 hr 13 min 41 sec) 
Heartbeat CPU 0 instructions: 110000001 cycles: 270807322 heartbeat IPC: 0.354053 cumulative IPC: 0.377212 (Simulation time: 4 hr 15 min 32 sec) 
Finished CPU 0 instructions: 100000001 cycles: 265103081 cummulative IPC: 0.377212 (Simulation time: 4 hr 15 min 32 sec) 

ChampSim completed all CPUs

Region of Interest Statistics

CPU 0 cummulative IPC: 0.377212 instructions: 100000001 cycles: 265103081
LLC TOTAL     ACCESS:    4666223  HIT:    2442300  MISS:    2223923
LLC LOAD      ACCESS:    2183631  HIT:    2084912  MISS:      98719
LLC RFO       ACCESS:      24956  HIT:      12957  MISS:      11999
LLC PREFETCH  ACCESS:    2377267  HIT:     307926  MISS:    2069341
LLC WRITEBACK ACCESS:      80369  HIT:      36505  MISS:      43864
