
*** ChampSim Multicore Out-of-Order Simulator ***

Warmup Instructions: 10000000
Simulation Instructions: 100000000
Configuration: 2
Number of CPUs: 1
LLC sets: 2048
LLC ways: 16
Off-chip DRAM Channels: 1 Width: 64-bit Data Rate: 1600 MT/s

CPU 0 runs /datasets/cs240c-wi22-a00-public/data/Assignment2-gz/cactusADM_734B.trace.gz
CPU 0 L1D next line prefetcher
CPU 0 L2C IP-based stride prefetcher
config 2, num_core 1, llc_sets 2048
Heartbeat CPU 0 instructions: 1000003 cycles: 592726 heartbeat IPC: 1.68713 cumulative IPC: 1.68713 (Simulation time: 0 hr 2 min 31 sec) 
Heartbeat CPU 0 instructions: 2000001 cycles: 1185927 heartbeat IPC: 1.68577 cumulative IPC: 1.68645 (Simulation time: 0 hr 5 min 17 sec) 
Heartbeat CPU 0 instructions: 3000003 cycles: 1778979 heartbeat IPC: 1.6862 cumulative IPC: 1.68636 (Simulation time: 0 hr 8 min 6 sec) 
Heartbeat CPU 0 instructions: 4000000 cycles: 2371929 heartbeat IPC: 1.68648 cumulative IPC: 1.68639 (Simulation time: 0 hr 10 min 59 sec) 
Heartbeat CPU 0 instructions: 5000000 cycles: 2965279 heartbeat IPC: 1.68535 cumulative IPC: 1.68618 (Simulation time: 0 hr 13 min 45 sec) 
Heartbeat CPU 0 instructions: 6000002 cycles: 3558553 heartbeat IPC: 1.68557 cumulative IPC: 1.68608 (Simulation time: 0 hr 16 min 43 sec) 
Heartbeat CPU 0 instructions: 7000000 cycles: 4151396 heartbeat IPC: 1.68678 cumulative IPC: 1.68618 (Simulation time: 0 hr 19 min 47 sec) 
Heartbeat CPU 0 instructions: 8000000 cycles: 4744345 heartbeat IPC: 1.68649 cumulative IPC: 1.68622 (Simulation time: 0 hr 22 min 39 sec) 
Heartbeat CPU 0 instructions: 9000001 cycles: 5337495 heartbeat IPC: 1.68592 cumulative IPC: 1.68618 (Simulation time: 0 hr 25 min 33 sec) 
Heartbeat CPU 0 instructions: 10000003 cycles: 5958969 heartbeat IPC: 1.60908 cumulative IPC: 1.67814 (Simulation time: 0 hr 28 min 21 sec) 

Warmup complete CPU 0 instructions: 10000003 cycles: 5958969 (Simulation time: 0 hr 28 min 21 sec) 

Heartbeat CPU 0 instructions: 11000002 cycles: 12583303 heartbeat IPC: 0.150958 cumulative IPC: 0.150958 (Simulation time: 0 hr 31 min 54 sec) 
Heartbeat CPU 0 instructions: 12000000 cycles: 14326062 heartbeat IPC: 0.573802 cumulative IPC: 0.239031 (Simulation time: 0 hr 35 min 4 sec) 
Heartbeat CPU 0 instructions: 13000002 cycles: 16014545 heartbeat IPC: 0.592249 cumulative IPC: 0.298342 (Simulation time: 0 hr 38 min 17 sec) 
Heartbeat CPU 0 instructions: 14000000 cycles: 17700805 heartbeat IPC: 0.593027 cumulative IPC: 0.340662 (Simulation time: 0 hr 41 min 2 sec) 
Heartbeat CPU 0 instructions: 15000003 cycles: 19440720 heartbeat IPC: 0.574742 cumulative IPC: 0.370872 (Simulation time: 0 hr 44 min 13 sec) 
Heartbeat CPU 0 instructions: 16000000 cycles: 21183595 heartbeat IPC: 0.573763 cumulative IPC: 0.394098 (Simulation time: 0 hr 47 min 16 sec) 
Heartbeat CPU 0 instructions: 17000002 cycles: 22918097 heartbeat IPC: 0.576536 cumulative IPC: 0.412757 (Simulation time: 0 hr 50 min 8 sec) 
Heartbeat CPU 0 instructions: 18000001 cycles: 24576748 heartbeat IPC: 0.602899 cumulative IPC: 0.429697 (Simulation time: 0 hr 52 min 52 sec) 
Heartbeat CPU 0 instructions: 19000000 cycles: 26293739 heartbeat IPC: 0.582414 cumulative IPC: 0.442592 (Simulation time: 0 hr 55 min 43 sec) 
Heartbeat CPU 0 instructions: 20000000 cycles: 28037107 heartbeat IPC: 0.573602 cumulative IPC: 0.452937 (Simulation time: 0 hr 58 min 28 sec) 
Heartbeat CPU 0 instructions: 21000002 cycles: 29781209 heartbeat IPC: 0.573362 cumulative IPC: 0.461753 (Simulation time: 1 hr 1 min 15 sec) 
Heartbeat CPU 0 instructions: 22000000 cycles: 31491101 heartbeat IPC: 0.584831 cumulative IPC: 0.469996 (Simulation time: 1 hr 4 min 13 sec) 
Heartbeat CPU 0 instructions: 23000001 cycles: 33155960 heartbeat IPC: 0.600652 cumulative IPC: 0.477994 (Simulation time: 1 hr 6 min 52 sec) 
Heartbeat CPU 0 instructions: 24000000 cycles: 40802709 heartbeat IPC: 0.130774 cumulative IPC: 0.401794 (Simulation time: 1 hr 10 min 48 sec) 
Heartbeat CPU 0 instructions: 25000000 cycles: 42545380 heartbeat IPC: 0.573832 cumulative IPC: 0.409988 (Simulation time: 1 hr 13 min 54 sec) 
Heartbeat CPU 0 instructions: 26000002 cycles: 44280062 heartbeat IPC: 0.576476 cumulative IPC: 0.417525 (Simulation time: 1 hr 16 min 34 sec) 
Heartbeat CPU 0 instructions: 27000002 cycles: 45943454 heartbeat IPC: 0.601181 cumulative IPC: 0.425165 (Simulation time: 1 hr 19 min 30 sec) 
Heartbeat CPU 0 instructions: 28000000 cycles: 47669240 heartbeat IPC: 0.579445 cumulative IPC: 0.431548 (Simulation time: 1 hr 22 min 21 sec) 
Heartbeat CPU 0 instructions: 29000001 cycles: 49427927 heartbeat IPC: 0.568607 cumulative IPC: 0.437093 (Simulation time: 1 hr 25 min 11 sec) 
Heartbeat CPU 0 instructions: 30000001 cycles: 51169663 heartbeat IPC: 0.57414 cumulative IPC: 0.442373 (Simulation time: 1 hr 28 min 5 sec) 
Heartbeat CPU 0 instructions: 31000003 cycles: 52883580 heartbeat IPC: 0.58346 cumulative IPC: 0.447526 (Simulation time: 1 hr 30 min 44 sec) 
Heartbeat CPU 0 instructions: 32000000 cycles: 54542010 heartbeat IPC: 0.602978 cumulative IPC: 0.452833 (Simulation time: 1 hr 33 min 33 sec) 
Heartbeat CPU 0 instructions: 33000000 cycles: 56277967 heartbeat IPC: 0.576051 cumulative IPC: 0.457084 (Simulation time: 1 hr 36 min 28 sec) 
Heartbeat CPU 0 instructions: 34000001 cycles: 58022987 heartbeat IPC: 0.57306 cumulative IPC: 0.460971 (Simulation time: 1 hr 39 min 11 sec) 
Heartbeat CPU 0 instructions: 35000000 cycles: 59761556 heartbeat IPC: 0.575185 cumulative IPC: 0.464662 (Simulation time: 1 hr 41 min 54 sec) 
Heartbeat CPU 0 instructions: 36000000 cycles: 61445117 heartbeat IPC: 0.593979 cumulative IPC: 0.468585 (Simulation time: 1 hr 44 min 45 sec) 
Heartbeat CPU 0 instructions: 37000003 cycles: 69031821 heartbeat IPC: 0.13181 cumulative IPC: 0.428076 (Simulation time: 1 hr 48 min 13 sec) 
Heartbeat CPU 0 instructions: 38000001 cycles: 70773593 heartbeat IPC: 0.574127 cumulative IPC: 0.432001 (Simulation time: 1 hr 50 min 58 sec) 
Heartbeat CPU 0 instructions: 39000001 cycles: 72515011 heartbeat IPC: 0.574245 cumulative IPC: 0.435723 (Simulation time: 1 hr 53 min 45 sec) 
Heartbeat CPU 0 instructions: 40000000 cycles: 74232668 heartbeat IPC: 0.582188 cumulative IPC: 0.439408 (Simulation time: 1 hr 56 min 27 sec) 
Heartbeat CPU 0 instructions: 41000001 cycles: 75888245 heartbeat IPC: 0.60402 cumulative IPC: 0.443305 (Simulation time: 1 hr 59 min 9 sec) 
Heartbeat CPU 0 instructions: 42000002 cycles: 77624627 heartbeat IPC: 0.575911 cumulative IPC: 0.446518 (Simulation time: 2 hr 1 min 57 sec) 
Heartbeat CPU 0 instructions: 43000000 cycles: 79366322 heartbeat IPC: 0.574152 cumulative IPC: 0.449546 (Simulation time: 2 hr 4 min 55 sec) 
Heartbeat CPU 0 instructions: 44000000 cycles: 81106820 heartbeat IPC: 0.574548 cumulative IPC: 0.452441 (Simulation time: 2 hr 8 min 11 sec) 
Heartbeat CPU 0 instructions: 45000000 cycles: 82792427 heartbeat IPC: 0.593258 cumulative IPC: 0.455531 (Simulation time: 2 hr 11 min 10 sec) 
Heartbeat CPU 0 instructions: 46000003 cycles: 84476411 heartbeat IPC: 0.593832 cumulative IPC: 0.458497 (Simulation time: 2 hr 13 min 49 sec) 
Heartbeat CPU 0 instructions: 47000001 cycles: 86214979 heartbeat IPC: 0.575185 cumulative IPC: 0.461025 (Simulation time: 2 hr 16 min 45 sec) 
Heartbeat CPU 0 instructions: 48000000 cycles: 87956760 heartbeat IPC: 0.574124 cumulative IPC: 0.463427 (Simulation time: 2 hr 19 min 36 sec) 
Heartbeat CPU 0 instructions: 49000000 cycles: 89693811 heartbeat IPC: 0.575688 cumulative IPC: 0.465756 (Simulation time: 2 hr 22 min 43 sec) 
Heartbeat CPU 0 instructions: 50000001 cycles: 97195835 heartbeat IPC: 0.133297 cumulative IPC: 0.438419 (Simulation time: 2 hr 26 min 10 sec) 
Heartbeat CPU 0 instructions: 51000000 cycles: 98927891 heartbeat IPC: 0.577348 cumulative IPC: 0.441008 (Simulation time: 2 hr 29 min 8 sec) 
Heartbeat CPU 0 instructions: 52000000 cycles: 100669010 heartbeat IPC: 0.574343 cumulative IPC: 0.443459 (Simulation time: 2 hr 32 min 19 sec) 
Heartbeat CPU 0 instructions: 53000003 cycles: 102410398 heartbeat IPC: 0.574256 cumulative IPC: 0.44582 (Simulation time: 2 hr 35 min 37 sec) 
Heartbeat CPU 0 instructions: 54000000 cycles: 104099471 heartbeat IPC: 0.592039 cumulative IPC: 0.448337 (Simulation time: 2 hr 38 min 42 sec) 
Heartbeat CPU 0 instructions: 55000001 cycles: 105776221 heartbeat IPC: 0.596392 cumulative IPC: 0.450824 (Simulation time: 2 hr 41 min 43 sec) 
Heartbeat CPU 0 instructions: 56000000 cycles: 107530633 heartbeat IPC: 0.569991 cumulative IPC: 0.452882 (Simulation time: 2 hr 44 min 39 sec) 
Heartbeat CPU 0 instructions: 57000000 cycles: 109282481 heartbeat IPC: 0.570826 cumulative IPC: 0.454882 (Simulation time: 2 hr 47 min 36 sec) 
Heartbeat CPU 0 instructions: 58000001 cycles: 111018862 heartbeat IPC: 0.575911 cumulative IPC: 0.456882 (Simulation time: 2 hr 50 min 30 sec) 
Heartbeat CPU 0 instructions: 59000000 cycles: 112679847 heartbeat IPC: 0.602052 cumulative IPC: 0.459142 (Simulation time: 2 hr 53 min 34 sec) 
Heartbeat CPU 0 instructions: 60000000 cycles: 114389415 heartbeat IPC: 0.584943 cumulative IPC: 0.461125 (Simulation time: 2 hr 56 min 53 sec) 
Heartbeat CPU 0 instructions: 61000002 cycles: 116131500 heartbeat IPC: 0.574026 cumulative IPC: 0.46291 (Simulation time: 2 hr 59 min 48 sec) 
Heartbeat CPU 0 instructions: 62000002 cycles: 117874413 heartbeat IPC: 0.573752 cumulative IPC: 0.464636 (Simulation time: 3 hr 2 min 50 sec) 
Heartbeat CPU 0 instructions: 63000002 cycles: 125283477 heartbeat IPC: 0.13497 cumulative IPC: 0.444167 (Simulation time: 3 hr 6 min 27 sec) 
Heartbeat CPU 0 instructions: 64000000 cycles: 127241779 heartbeat IPC: 0.510645 cumulative IPC: 0.44524 (Simulation time: 3 hr 9 min 26 sec) 
Heartbeat CPU 0 instructions: 65000003 cycles: 128981015 heartbeat IPC: 0.574967 cumulative IPC: 0.447074 (Simulation time: 3 hr 12 min 2 sec) 
Heartbeat CPU 0 instructions: 66000001 cycles: 130724190 heartbeat IPC: 0.573665 cumulative IPC: 0.448843 (Simulation time: 3 hr 14 min 51 sec) 
Heartbeat CPU 0 instructions: 67000000 cycles: 132459050 heartbeat IPC: 0.576415 cumulative IPC: 0.450593 (Simulation time: 3 hr 17 min 52 sec) 
Heartbeat CPU 0 instructions: 68000000 cycles: 134119984 heartbeat IPC: 0.602071 cumulative IPC: 0.452556 (Simulation time: 3 hr 21 min 3 sec) 
Heartbeat CPU 0 instructions: 69000000 cycles: 135821607 heartbeat IPC: 0.587674 cumulative IPC: 0.454326 (Simulation time: 3 hr 23 min 33 sec) 
Heartbeat CPU 0 instructions: 70000001 cycles: 137563525 heartbeat IPC: 0.57408 cumulative IPC: 0.455911 (Simulation time: 3 hr 26 min 16 sec) 
Heartbeat CPU 0 instructions: 71000001 cycles: 139308480 heartbeat IPC: 0.573081 cumulative IPC: 0.457444 (Simulation time: 3 hr 28 min 59 sec) 
Heartbeat CPU 0 instructions: 72000000 cycles: 141032665 heartbeat IPC: 0.579984 cumulative IPC: 0.459009 (Simulation time: 3 hr 31 min 29 sec) 
Heartbeat CPU 0 instructions: 73000003 cycles: 142684865 heartbeat IPC: 0.605255 cumulative IPC: 0.460776 (Simulation time: 3 hr 34 min 7 sec) 
Heartbeat CPU 0 instructions: 74000002 cycles: 144419533 heartbeat IPC: 0.576479 cumulative IPC: 0.462225 (Simulation time: 3 hr 36 min 36 sec) 
Heartbeat CPU 0 instructions: 75000002 cycles: 146162629 heartbeat IPC: 0.573692 cumulative IPC: 0.463611 (Simulation time: 3 hr 39 min 3 sec) 
Heartbeat CPU 0 instructions: 76000000 cycles: 152376190 heartbeat IPC: 0.160938 cumulative IPC: 0.450767 (Simulation time: 3 hr 41 min 58 sec) 
Heartbeat CPU 0 instructions: 77000000 cycles: 155574555 heartbeat IPC: 0.31266 cumulative IPC: 0.447814 (Simulation time: 3 hr 44 min 52 sec) 
Heartbeat CPU 0 instructions: 78000002 cycles: 157274356 heartbeat IPC: 0.588305 cumulative IPC: 0.449392 (Simulation time: 3 hr 47 min 27 sec) 
Heartbeat CPU 0 instructions: 79000002 cycles: 159018371 heartbeat IPC: 0.57339 cumulative IPC: 0.450805 (Simulation time: 3 hr 49 min 51 sec) 
Heartbeat CPU 0 instructions: 80000000 cycles: 160752991 heartbeat IPC: 0.576494 cumulative IPC: 0.452214 (Simulation time: 3 hr 52 min 11 sec) 
Heartbeat CPU 0 instructions: 81000000 cycles: 162475092 heartbeat IPC: 0.580686 cumulative IPC: 0.453627 (Simulation time: 3 hr 54 min 35 sec) 
Heartbeat CPU 0 instructions: 82000003 cycles: 164117025 heartbeat IPC: 0.60904 cumulative IPC: 0.455241 (Simulation time: 3 hr 57 min 5 sec) 
Heartbeat CPU 0 instructions: 83000003 cycles: 165846470 heartbeat IPC: 0.57822 cumulative IPC: 0.456571 (Simulation time: 3 hr 59 min 22 sec) 
Heartbeat CPU 0 instructions: 84000000 cycles: 167587257 heartbeat IPC: 0.574451 cumulative IPC: 0.457841 (Simulation time: 4 hr 1 min 42 sec) 
Heartbeat CPU 0 instructions: 85000003 cycles: 169330464 heartbeat IPC: 0.573657 cumulative IPC: 0.459076 (Simulation time: 4 hr 3 min 56 sec) 
Heartbeat CPU 0 instructions: 86000000 cycles: 171028495 heartbeat IPC: 0.588916 cumulative IPC: 0.460412 (Simulation time: 4 hr 6 min 1 sec) 
Heartbeat CPU 0 instructions: 87000000 cycles: 172704684 heartbeat IPC: 0.596591 cumulative IPC: 0.461781 (Simulation time: 4 hr 8 min 11 sec) 
Heartbeat CPU 0 instructions: 88000000 cycles: 174473848 heartbeat IPC: 0.565239 cumulative IPC: 0.462867 (Simulation time: 4 hr 10 min 25 sec) 
Heartbeat CPU 0 instructions: 89000002 cycles: 179609989 heartbeat IPC: 0.194699 cumulative IPC: 0.454935 (Simulation time: 4 hr 12 min 59 sec) 
Heartbeat CPU 0 instructions: 90000002 cycles: 183898227 heartbeat IPC: 0.233196 cumulative IPC: 0.449592 (Simulation time: 4 hr 15 min 41 sec) 
Heartbeat CPU 0 instructions: 91000003 cycles: 185550192 heartbeat IPC: 0.60534 cumulative IPC: 0.451024 (Simulation time: 4 hr 17 min 59 sec) 
Heartbeat CPU 0 instructions: 92000000 cycles: 187281585 heartbeat IPC: 0.577568 cumulative IPC: 0.452233 (Simulation time: 4 hr 20 min 14 sec) 
Heartbeat CPU 0 instructions: 93000000 cycles: 189020462 heartbeat IPC: 0.575084 cumulative IPC: 0.4534 (Simulation time: 4 hr 22 min 29 sec) 
Heartbeat CPU 0 instructions: 94000003 cycles: 190758664 heartbeat IPC: 0.575309 cumulative IPC: 0.454546 (Simulation time: 4 hr 24 min 50 sec) 
Heartbeat CPU 0 instructions: 95000000 cycles: 192457142 heartbeat IPC: 0.588761 cumulative IPC: 0.455769 (Simulation time: 4 hr 27 min 5 sec) 
Heartbeat CPU 0 instructions: 96000000 cycles: 194127852 heartbeat IPC: 0.598548 cumulative IPC: 0.457036 (Simulation time: 4 hr 29 min 14 sec) 
Heartbeat CPU 0 instructions: 97000001 cycles: 195865214 heartbeat IPC: 0.575586 cumulative IPC: 0.458121 (Simulation time: 4 hr 31 min 7 sec) 
Heartbeat CPU 0 instructions: 98000000 cycles: 197609668 heartbeat IPC: 0.573245 cumulative IPC: 0.459169 (Simulation time: 4 hr 33 min 0 sec) 
Heartbeat CPU 0 instructions: 99000001 cycles: 199351581 heartbeat IPC: 0.574082 cumulative IPC: 0.460204 (Simulation time: 4 hr 34 min 44 sec) 
Heartbeat CPU 0 instructions: 100000000 cycles: 201024022 heartbeat IPC: 0.597928 cumulative IPC: 0.461385 (Simulation time: 4 hr 36 min 22 sec) 
Heartbeat CPU 0 instructions: 101000000 cycles: 202728358 heartbeat IPC: 0.586739 cumulative IPC: 0.46247 (Simulation time: 4 hr 38 min 9 sec) 
Heartbeat CPU 0 instructions: 102000000 cycles: 206759546 heartbeat IPC: 0.248066 cumulative IPC: 0.458166 (Simulation time: 4 hr 40 min 26 sec) 
Heartbeat CPU 0 instructions: 103000000 cycles: 212129227 heartbeat IPC: 0.186231 cumulative IPC: 0.451083 (Simulation time: 4 hr 42 min 30 sec) 
Heartbeat CPU 0 instructions: 104000000 cycles: 213837712 heartbeat IPC: 0.585314 cumulative IPC: 0.452187 (Simulation time: 4 hr 44 min 22 sec) 
Heartbeat CPU 0 instructions: 105000000 cycles: 215505775 heartbeat IPC: 0.599498 cumulative IPC: 0.453359 (Simulation time: 4 hr 46 min 15 sec) 
Heartbeat CPU 0 instructions: 106000002 cycles: 217239742 heartbeat IPC: 0.576713 cumulative IPC: 0.454372 (Simulation time: 4 hr 47 min 50 sec) 
Heartbeat CPU 0 instructions: 107000001 cycles: 218977294 heartbeat IPC: 0.575522 cumulative IPC: 0.45536 (Simulation time: 4 hr 49 min 18 sec) 
Heartbeat CPU 0 instructions: 108000000 cycles: 220712492 heartbeat IPC: 0.576303 cumulative IPC: 0.456337 (Simulation time: 4 hr 50 min 41 sec) 
Heartbeat CPU 0 instructions: 109000001 cycles: 222385344 heartbeat IPC: 0.597782 cumulative IPC: 0.45743 (Simulation time: 4 hr 51 min 53 sec) 
Heartbeat CPU 0 instructions: 110000003 cycles: 224078753 heartbeat IPC: 0.590526 cumulative IPC: 0.458464 (Simulation time: 4 hr 52 min 58 sec) 
Finished CPU 0 instructions: 100000000 cycles: 218119784 cummulative IPC: 0.458464 (Simulation time: 4 hr 52 min 58 sec) 

ChampSim completed all CPUs

Region of Interest Statistics

CPU 0 cummulative IPC: 0.458464 instructions: 100000000 cycles: 218119784
LLC TOTAL     ACCESS:    1166779  HIT:     141677  MISS:    1025102
LLC LOAD      ACCESS:      25021  HIT:        641  MISS:      24380
LLC RFO       ACCESS:     264086  HIT:      16856  MISS:     247230
LLC PREFETCH  ACCESS:     611566  HIT:      79960  MISS:     531606
LLC WRITEBACK ACCESS:     266106  HIT:      44220  MISS:     221886
