
*** ChampSim Multicore Out-of-Order Simulator ***

Warmup Instructions: 10000000
Simulation Instructions: 100000000
Configuration: 2
Number of CPUs: 1
LLC sets: 2048
LLC ways: 16
Off-chip DRAM Channels: 1 Width: 64-bit Data Rate: 1600 MT/s

CPU 0 runs /datasets/cs240c-wi22-a00-public/data/Assignment2-gz/sphinx3_1339B.trace.gz
CPU 0 L1D next line prefetcher
CPU 0 L2C IP-based stride prefetcher
config 2, num_core 1, llc_sets 2048
Heartbeat CPU 0 instructions: 1000000 cycles: 339022 heartbeat IPC: 2.94966 cumulative IPC: 2.94966 (Simulation time: 0 hr 2 min 35 sec) 
Heartbeat CPU 0 instructions: 2000001 cycles: 693439 heartbeat IPC: 2.82154 cumulative IPC: 2.88418 (Simulation time: 0 hr 5 min 18 sec) 
Heartbeat CPU 0 instructions: 3000000 cycles: 1084605 heartbeat IPC: 2.55646 cumulative IPC: 2.76598 (Simulation time: 0 hr 8 min 22 sec) 
Heartbeat CPU 0 instructions: 4000000 cycles: 1530004 heartbeat IPC: 2.24518 cumulative IPC: 2.61437 (Simulation time: 0 hr 10 min 59 sec) 
Heartbeat CPU 0 instructions: 5000003 cycles: 1869024 heartbeat IPC: 2.94969 cumulative IPC: 2.67519 (Simulation time: 0 hr 13 min 39 sec) 
Heartbeat CPU 0 instructions: 6000002 cycles: 2253235 heartbeat IPC: 2.60273 cumulative IPC: 2.66284 (Simulation time: 0 hr 16 min 37 sec) 
Heartbeat CPU 0 instructions: 7000001 cycles: 2717026 heartbeat IPC: 2.15614 cumulative IPC: 2.57635 (Simulation time: 0 hr 19 min 32 sec) 
Heartbeat CPU 0 instructions: 8000000 cycles: 3055900 heartbeat IPC: 2.95095 cumulative IPC: 2.61789 (Simulation time: 0 hr 22 min 21 sec) 
Heartbeat CPU 0 instructions: 9000003 cycles: 3412570 heartbeat IPC: 2.80372 cumulative IPC: 2.63731 (Simulation time: 0 hr 25 min 17 sec) 
Heartbeat CPU 0 instructions: 10000001 cycles: 3799371 heartbeat IPC: 2.5853 cumulative IPC: 2.63201 (Simulation time: 0 hr 28 min 24 sec) 

Warmup complete CPU 0 instructions: 10000001 cycles: 3799371 (Simulation time: 0 hr 28 min 24 sec) 

Heartbeat CPU 0 instructions: 11000000 cycles: 4622232 heartbeat IPC: 1.21527 cumulative IPC: 1.21527 (Simulation time: 0 hr 31 min 39 sec) 
Heartbeat CPU 0 instructions: 12000000 cycles: 5299750 heartbeat IPC: 1.47598 cumulative IPC: 1.333 (Simulation time: 0 hr 34 min 47 sec) 
Heartbeat CPU 0 instructions: 13000000 cycles: 6804089 heartbeat IPC: 0.664744 cumulative IPC: 0.998429 (Simulation time: 0 hr 38 min 30 sec) 
Heartbeat CPU 0 instructions: 14000000 cycles: 7736013 heartbeat IPC: 1.07305 cumulative IPC: 1.01609 (Simulation time: 0 hr 41 min 40 sec) 
Heartbeat CPU 0 instructions: 15000001 cycles: 8391637 heartbeat IPC: 1.52527 cumulative IPC: 1.08879 (Simulation time: 0 hr 44 min 45 sec) 
Heartbeat CPU 0 instructions: 16000000 cycles: 9452434 heartbeat IPC: 0.942686 cumulative IPC: 1.06137 (Simulation time: 0 hr 47 min 55 sec) 
Heartbeat CPU 0 instructions: 17000001 cycles: 10823779 heartbeat IPC: 0.729212 cumulative IPC: 0.996525 (Simulation time: 0 hr 51 min 15 sec) 
Heartbeat CPU 0 instructions: 18000003 cycles: 11897182 heartbeat IPC: 0.931618 cumulative IPC: 0.987922 (Simulation time: 0 hr 54 min 35 sec) 
Heartbeat CPU 0 instructions: 19000002 cycles: 12700322 heartbeat IPC: 1.24511 cumulative IPC: 1.01113 (Simulation time: 0 hr 57 min 42 sec) 
Heartbeat CPU 0 instructions: 20000000 cycles: 13366709 heartbeat IPC: 1.50063 cumulative IPC: 1.04522 (Simulation time: 1 hr 0 min 42 sec) 
Heartbeat CPU 0 instructions: 21000000 cycles: 14597158 heartbeat IPC: 0.812711 cumulative IPC: 1.01873 (Simulation time: 1 hr 4 min 9 sec) 
Heartbeat CPU 0 instructions: 22000000 cycles: 15616098 heartbeat IPC: 0.981412 cumulative IPC: 1.01551 (Simulation time: 1 hr 7 min 28 sec) 
Heartbeat CPU 0 instructions: 23000003 cycles: 16319268 heartbeat IPC: 1.42214 cumulative IPC: 1.03835 (Simulation time: 1 hr 10 min 31 sec) 
Heartbeat CPU 0 instructions: 24000000 cycles: 17162693 heartbeat IPC: 1.18564 cumulative IPC: 1.04764 (Simulation time: 1 hr 13 min 49 sec) 
Heartbeat CPU 0 instructions: 25000001 cycles: 18118487 heartbeat IPC: 1.04625 cumulative IPC: 1.04755 (Simulation time: 1 hr 16 min 51 sec) 
Heartbeat CPU 0 instructions: 26000003 cycles: 18839717 heartbeat IPC: 1.38652 cumulative IPC: 1.06381 (Simulation time: 1 hr 19 min 49 sec) 
Heartbeat CPU 0 instructions: 27000002 cycles: 19550399 heartbeat IPC: 1.4071 cumulative IPC: 1.07929 (Simulation time: 1 hr 22 min 56 sec) 
Heartbeat CPU 0 instructions: 28000000 cycles: 20520620 heartbeat IPC: 1.03069 cumulative IPC: 1.07647 (Simulation time: 1 hr 26 min 17 sec) 
Heartbeat CPU 0 instructions: 29000003 cycles: 21262459 heartbeat IPC: 1.34801 cumulative IPC: 1.08801 (Simulation time: 1 hr 29 min 16 sec) 
Heartbeat CPU 0 instructions: 30000001 cycles: 21946608 heartbeat IPC: 1.46167 cumulative IPC: 1.1021 (Simulation time: 1 hr 32 min 16 sec) 
Heartbeat CPU 0 instructions: 31000002 cycles: 22888617 heartbeat IPC: 1.06156 cumulative IPC: 1.1001 (Simulation time: 1 hr 35 min 31 sec) 
Heartbeat CPU 0 instructions: 32000000 cycles: 23685399 heartbeat IPC: 1.25505 cumulative IPC: 1.1063 (Simulation time: 1 hr 38 min 37 sec) 
Heartbeat CPU 0 instructions: 33000001 cycles: 24355329 heartbeat IPC: 1.49269 cumulative IPC: 1.1189 (Simulation time: 1 hr 41 min 27 sec) 
Heartbeat CPU 0 instructions: 34000001 cycles: 25750506 heartbeat IPC: 0.716755 cumulative IPC: 1.09334 (Simulation time: 1 hr 44 min 31 sec) 
Heartbeat CPU 0 instructions: 35000002 cycles: 26665097 heartbeat IPC: 1.09339 cumulative IPC: 1.09334 (Simulation time: 1 hr 47 min 12 sec) 
Heartbeat CPU 0 instructions: 36000000 cycles: 27374773 heartbeat IPC: 1.40909 cumulative IPC: 1.10284 (Simulation time: 1 hr 50 min 1 sec) 
Heartbeat CPU 0 instructions: 37000003 cycles: 28319159 heartbeat IPC: 1.05889 cumulative IPC: 1.10115 (Simulation time: 1 hr 52 min 50 sec) 
Heartbeat CPU 0 instructions: 38000000 cycles: 29524417 heartbeat IPC: 0.829695 cumulative IPC: 1.08843 (Simulation time: 1 hr 55 min 31 sec) 
Heartbeat CPU 0 instructions: 39000000 cycles: 30347143 heartbeat IPC: 1.21547 cumulative IPC: 1.09237 (Simulation time: 1 hr 57 min 55 sec) 
Heartbeat CPU 0 instructions: 40000000 cycles: 31067539 heartbeat IPC: 1.38813 cumulative IPC: 1.10018 (Simulation time: 2 hr 0 min 5 sec) 
Heartbeat CPU 0 instructions: 41000000 cycles: 32308467 heartbeat IPC: 0.805849 cumulative IPC: 1.08737 (Simulation time: 2 hr 2 min 9 sec) 
Heartbeat CPU 0 instructions: 42000002 cycles: 33187157 heartbeat IPC: 1.13806 cumulative IPC: 1.08889 (Simulation time: 2 hr 4 min 40 sec) 
Heartbeat CPU 0 instructions: 43000000 cycles: 33909294 heartbeat IPC: 1.38478 cumulative IPC: 1.09598 (Simulation time: 2 hr 6 min 58 sec) 
Heartbeat CPU 0 instructions: 44000000 cycles: 34922200 heartbeat IPC: 0.987258 cumulative IPC: 1.09245 (Simulation time: 2 hr 9 min 13 sec) 
Heartbeat CPU 0 instructions: 45000002 cycles: 35934030 heartbeat IPC: 0.98831 cumulative IPC: 1.08917 (Simulation time: 2 hr 11 min 20 sec) 
Heartbeat CPU 0 instructions: 46000003 cycles: 36689706 heartbeat IPC: 1.32332 cumulative IPC: 1.09455 (Simulation time: 2 hr 13 min 24 sec) 
Heartbeat CPU 0 instructions: 47000000 cycles: 37432386 heartbeat IPC: 1.34647 cumulative IPC: 1.10011 (Simulation time: 2 hr 15 min 32 sec) 
Heartbeat CPU 0 instructions: 48000000 cycles: 38427666 heartbeat IPC: 1.00474 cumulative IPC: 1.09737 (Simulation time: 2 hr 17 min 31 sec) 
Heartbeat CPU 0 instructions: 49000000 cycles: 39219458 heartbeat IPC: 1.26296 cumulative IPC: 1.10107 (Simulation time: 2 hr 19 min 34 sec) 
Heartbeat CPU 0 instructions: 50000000 cycles: 39939796 heartbeat IPC: 1.38824 cumulative IPC: 1.10679 (Simulation time: 2 hr 21 min 23 sec) 
Heartbeat CPU 0 instructions: 51000001 cycles: 41137802 heartbeat IPC: 0.834721 cumulative IPC: 1.09806 (Simulation time: 2 hr 23 min 36 sec) 
Heartbeat CPU 0 instructions: 52000000 cycles: 41962708 heartbeat IPC: 1.21226 cumulative IPC: 1.10053 (Simulation time: 2 hr 25 min 29 sec) 
Heartbeat CPU 0 instructions: 53000002 cycles: 42677119 heartbeat IPC: 1.39976 cumulative IPC: 1.10603 (Simulation time: 2 hr 27 min 26 sec) 
Heartbeat CPU 0 instructions: 54000003 cycles: 43813154 heartbeat IPC: 0.880255 cumulative IPC: 1.09962 (Simulation time: 2 hr 29 min 29 sec) 
Heartbeat CPU 0 instructions: 55000001 cycles: 44727843 heartbeat IPC: 1.09327 cumulative IPC: 1.09948 (Simulation time: 2 hr 31 min 20 sec) 
Heartbeat CPU 0 instructions: 56000000 cycles: 45475234 heartbeat IPC: 1.33799 cumulative IPC: 1.10376 (Simulation time: 2 hr 33 min 16 sec) 
Heartbeat CPU 0 instructions: 57000000 cycles: 46381143 heartbeat IPC: 1.10386 cumulative IPC: 1.10376 (Simulation time: 2 hr 35 min 2 sec) 
Heartbeat CPU 0 instructions: 58000000 cycles: 47473428 heartbeat IPC: 0.915512 cumulative IPC: 1.09905 (Simulation time: 2 hr 37 min 19 sec) 
Heartbeat CPU 0 instructions: 59000002 cycles: 48250710 heartbeat IPC: 1.28654 cumulative IPC: 1.10233 (Simulation time: 2 hr 39 min 22 sec) 
Heartbeat CPU 0 instructions: 60000000 cycles: 48997607 heartbeat IPC: 1.33887 cumulative IPC: 1.10624 (Simulation time: 2 hr 41 min 17 sec) 
Heartbeat CPU 0 instructions: 61000000 cycles: 50317913 heartbeat IPC: 0.7574 cumulative IPC: 1.09634 (Simulation time: 2 hr 43 min 17 sec) 
Heartbeat CPU 0 instructions: 62000002 cycles: 51458317 heartbeat IPC: 0.876884 cumulative IPC: 1.09109 (Simulation time: 2 hr 45 min 50 sec) 
Heartbeat CPU 0 instructions: 63000001 cycles: 52289585 heartbeat IPC: 1.20298 cumulative IPC: 1.093 (Simulation time: 2 hr 48 min 28 sec) 
Heartbeat CPU 0 instructions: 64000000 cycles: 53027292 heartbeat IPC: 1.35555 cumulative IPC: 1.09694 (Simulation time: 2 hr 51 min 20 sec) 
Heartbeat CPU 0 instructions: 65000000 cycles: 54056407 heartbeat IPC: 0.971709 cumulative IPC: 1.09437 (Simulation time: 2 hr 54 min 22 sec) 
Heartbeat CPU 0 instructions: 66000001 cycles: 55033498 heartbeat IPC: 1.02345 cumulative IPC: 1.09302 (Simulation time: 2 hr 57 min 1 sec) 
Heartbeat CPU 0 instructions: 67000000 cycles: 55802382 heartbeat IPC: 1.30059 cumulative IPC: 1.09609 (Simulation time: 2 hr 59 min 45 sec) 
Heartbeat CPU 0 instructions: 68000000 cycles: 56617178 heartbeat IPC: 1.2273 cumulative IPC: 1.09811 (Simulation time: 3 hr 2 min 45 sec) 
Heartbeat CPU 0 instructions: 69000003 cycles: 57751714 heartbeat IPC: 0.88142 cumulative IPC: 1.09356 (Simulation time: 3 hr 5 min 33 sec) 
Heartbeat CPU 0 instructions: 70000003 cycles: 58571023 heartbeat IPC: 1.22054 cumulative IPC: 1.09546 (Simulation time: 3 hr 8 min 13 sec) 
Heartbeat CPU 0 instructions: 71000001 cycles: 59315661 heartbeat IPC: 1.34293 cumulative IPC: 1.09878 (Simulation time: 3 hr 11 min 2 sec) 
Heartbeat CPU 0 instructions: 72000000 cycles: 60522653 heartbeat IPC: 0.828505 cumulative IPC: 1.09303 (Simulation time: 3 hr 13 min 59 sec) 
Heartbeat CPU 0 instructions: 73000001 cycles: 61356433 heartbeat IPC: 1.19936 cumulative IPC: 1.09457 (Simulation time: 3 hr 16 min 46 sec) 
Heartbeat CPU 0 instructions: 74000000 cycles: 62092101 heartbeat IPC: 1.35931 cumulative IPC: 1.09791 (Simulation time: 3 hr 19 min 27 sec) 
Heartbeat CPU 0 instructions: 75000003 cycles: 63149881 heartbeat IPC: 0.945379 cumulative IPC: 1.09519 (Simulation time: 3 hr 21 min 42 sec) 
Heartbeat CPU 0 instructions: 76000000 cycles: 64087762 heartbeat IPC: 1.06623 cumulative IPC: 1.09474 (Simulation time: 3 hr 23 min 51 sec) 
Heartbeat CPU 0 instructions: 77000002 cycles: 64856626 heartbeat IPC: 1.30062 cumulative IPC: 1.09733 (Simulation time: 3 hr 25 min 55 sec) 
Heartbeat CPU 0 instructions: 78000002 cycles: 65713863 heartbeat IPC: 1.16654 cumulative IPC: 1.09829 (Simulation time: 3 hr 28 min 15 sec) 
Heartbeat CPU 0 instructions: 79000001 cycles: 66800583 heartbeat IPC: 0.920199 cumulative IPC: 1.09522 (Simulation time: 3 hr 30 min 17 sec) 
Heartbeat CPU 0 instructions: 80000000 cycles: 67613045 heartbeat IPC: 1.23083 cumulative IPC: 1.09694 (Simulation time: 3 hr 32 min 22 sec) 
Heartbeat CPU 0 instructions: 81000001 cycles: 68357670 heartbeat IPC: 1.34296 cumulative IPC: 1.09978 (Simulation time: 3 hr 34 min 37 sec) 
Heartbeat CPU 0 instructions: 82000000 cycles: 69523458 heartbeat IPC: 0.857788 cumulative IPC: 1.09549 (Simulation time: 3 hr 36 min 47 sec) 
Heartbeat CPU 0 instructions: 83000001 cycles: 70352004 heartbeat IPC: 1.20693 cumulative IPC: 1.09688 (Simulation time: 3 hr 38 min 48 sec) 
Heartbeat CPU 0 instructions: 84000000 cycles: 71077844 heartbeat IPC: 1.37771 cumulative IPC: 1.09991 (Simulation time: 3 hr 40 min 38 sec) 
Heartbeat CPU 0 instructions: 85000002 cycles: 72205039 heartbeat IPC: 0.88716 cumulative IPC: 1.0964 (Simulation time: 3 hr 42 min 42 sec) 
Heartbeat CPU 0 instructions: 86000003 cycles: 73092623 heartbeat IPC: 1.12666 cumulative IPC: 1.09679 (Simulation time: 3 hr 44 min 28 sec) 
Heartbeat CPU 0 instructions: 87000003 cycles: 73848487 heartbeat IPC: 1.32299 cumulative IPC: 1.09923 (Simulation time: 3 hr 46 min 13 sec) 
Heartbeat CPU 0 instructions: 88000000 cycles: 74819702 heartbeat IPC: 1.02964 cumulative IPC: 1.09828 (Simulation time: 3 hr 48 min 2 sec) 
Heartbeat CPU 0 instructions: 89000000 cycles: 75846157 heartbeat IPC: 0.974227 cumulative IPC: 1.09651 (Simulation time: 3 hr 50 min 6 sec) 
Heartbeat CPU 0 instructions: 90000003 cycles: 76623504 heartbeat IPC: 1.28643 cumulative IPC: 1.09854 (Simulation time: 3 hr 51 min 56 sec) 
Heartbeat CPU 0 instructions: 91000000 cycles: 77383929 heartbeat IPC: 1.31505 cumulative IPC: 1.10077 (Simulation time: 3 hr 53 min 41 sec) 
Heartbeat CPU 0 instructions: 92000000 cycles: 78560021 heartbeat IPC: 0.850274 cumulative IPC: 1.09683 (Simulation time: 3 hr 55 min 39 sec) 
Heartbeat CPU 0 instructions: 93000001 cycles: 79371726 heartbeat IPC: 1.23198 cumulative IPC: 1.09829 (Simulation time: 3 hr 57 min 27 sec) 
Heartbeat CPU 0 instructions: 94000001 cycles: 80104642 heartbeat IPC: 1.36441 cumulative IPC: 1.10084 (Simulation time: 3 hr 59 min 20 sec) 
Heartbeat CPU 0 instructions: 95000002 cycles: 81302619 heartbeat IPC: 0.834741 cumulative IPC: 1.09673 (Simulation time: 4 hr 1 min 4 sec) 
Heartbeat CPU 0 instructions: 96000000 cycles: 82148167 heartbeat IPC: 1.18266 cumulative IPC: 1.09766 (Simulation time: 4 hr 2 min 53 sec) 
Heartbeat CPU 0 instructions: 97000002 cycles: 82889098 heartbeat IPC: 1.34966 cumulative IPC: 1.10002 (Simulation time: 4 hr 4 min 35 sec) 
Heartbeat CPU 0 instructions: 98000000 cycles: 83940497 heartbeat IPC: 0.951112 cumulative IPC: 1.09806 (Simulation time: 4 hr 6 min 21 sec) 
Heartbeat CPU 0 instructions: 99000003 cycles: 85041925 heartbeat IPC: 0.907915 cumulative IPC: 1.09549 (Simulation time: 4 hr 8 min 6 sec) 
Heartbeat CPU 0 instructions: 100000000 cycles: 85844572 heartbeat IPC: 1.24587 cumulative IPC: 1.09696 (Simulation time: 4 hr 9 min 48 sec) 
Heartbeat CPU 0 instructions: 101000000 cycles: 86620540 heartbeat IPC: 1.28871 cumulative IPC: 1.09875 (Simulation time: 4 hr 11 min 19 sec) 
Heartbeat CPU 0 instructions: 102000001 cycles: 88078117 heartbeat IPC: 0.686071 cumulative IPC: 1.09162 (Simulation time: 4 hr 13 min 7 sec) 
Heartbeat CPU 0 instructions: 103000000 cycles: 89329412 heartbeat IPC: 0.799171 cumulative IPC: 1.08734 (Simulation time: 4 hr 14 min 56 sec) 
Heartbeat CPU 0 instructions: 104000000 cycles: 90277617 heartbeat IPC: 1.05462 cumulative IPC: 1.08698 (Simulation time: 4 hr 16 min 36 sec) 
Heartbeat CPU 0 instructions: 105000003 cycles: 91068965 heartbeat IPC: 1.26367 cumulative IPC: 1.08858 (Simulation time: 4 hr 18 min 7 sec) 
Heartbeat CPU 0 instructions: 106000000 cycles: 91865714 heartbeat IPC: 1.2551 cumulative IPC: 1.09009 (Simulation time: 4 hr 19 min 47 sec) 
Heartbeat CPU 0 instructions: 107000001 cycles: 93305447 heartbeat IPC: 0.694574 cumulative IPC: 1.08373 (Simulation time: 4 hr 21 min 32 sec) 
Heartbeat CPU 0 instructions: 108000000 cycles: 94215754 heartbeat IPC: 1.09853 cumulative IPC: 1.08387 (Simulation time: 4 hr 23 min 5 sec) 
Heartbeat CPU 0 instructions: 109000000 cycles: 94989537 heartbeat IPC: 1.29235 cumulative IPC: 1.08564 (Simulation time: 4 hr 24 min 39 sec) 
Heartbeat CPU 0 instructions: 110000000 cycles: 96080407 heartbeat IPC: 0.9167 cumulative IPC: 1.08365 (Simulation time: 4 hr 26 min 17 sec) 
Finished CPU 0 instructions: 100000000 cycles: 92281038 cummulative IPC: 1.08365 (Simulation time: 4 hr 26 min 17 sec) 

ChampSim completed all CPUs

Region of Interest Statistics

CPU 0 cummulative IPC: 1.08365 instructions: 100000000 cycles: 92281038
LLC TOTAL     ACCESS:    1574077  HIT:     844450  MISS:     729627
LLC LOAD      ACCESS:     202286  HIT:     172413  MISS:      29873
LLC RFO       ACCESS:     111371  HIT:     106332  MISS:       5039
LLC PREFETCH  ACCESS:    1127261  HIT:     434324  MISS:     692937
LLC WRITEBACK ACCESS:     133159  HIT:     131381  MISS:       1778
