
*** ChampSim Multicore Out-of-Order Simulator ***

Warmup Instructions: 10000000
Simulation Instructions: 100000000
Configuration: 2
Number of CPUs: 1
LLC sets: 2048
LLC ways: 16
Off-chip DRAM Channels: 1 Width: 64-bit Data Rate: 1600 MT/s

CPU 0 runs /datasets/cs240c-wi22-a00-public/data/Assignment2-gz/mcf_250B.trace.gz
CPU 0 L1D next line prefetcher
CPU 0 L2C IP-based stride prefetcher
config 2, num_core 1, llc_sets 2048
Heartbeat CPU 0 instructions: 1000000 cycles: 536551 heartbeat IPC: 1.86376 cumulative IPC: 1.86376 (Simulation time: 0 hr 3 min 10 sec) 
Heartbeat CPU 0 instructions: 2000003 cycles: 1051264 heartbeat IPC: 1.94284 cumulative IPC: 1.90247 (Simulation time: 0 hr 6 min 15 sec) 
Heartbeat CPU 0 instructions: 3000002 cycles: 1547610 heartbeat IPC: 2.01472 cumulative IPC: 1.93847 (Simulation time: 0 hr 9 min 26 sec) 
Heartbeat CPU 0 instructions: 4000000 cycles: 2057975 heartbeat IPC: 1.95938 cumulative IPC: 1.94366 (Simulation time: 0 hr 12 min 52 sec) 
Heartbeat CPU 0 instructions: 5000002 cycles: 2563086 heartbeat IPC: 1.97977 cumulative IPC: 1.95077 (Simulation time: 0 hr 16 min 24 sec) 
Heartbeat CPU 0 instructions: 6000002 cycles: 3067423 heartbeat IPC: 1.9828 cumulative IPC: 1.95604 (Simulation time: 0 hr 19 min 37 sec) 
Heartbeat CPU 0 instructions: 7000002 cycles: 3604495 heartbeat IPC: 1.86195 cumulative IPC: 1.94202 (Simulation time: 0 hr 22 min 45 sec) 
Heartbeat CPU 0 instructions: 8000000 cycles: 4118167 heartbeat IPC: 1.94676 cumulative IPC: 1.94261 (Simulation time: 0 hr 25 min 52 sec) 
Heartbeat CPU 0 instructions: 9000002 cycles: 4631434 heartbeat IPC: 1.94831 cumulative IPC: 1.94324 (Simulation time: 0 hr 29 min 24 sec) 
Heartbeat CPU 0 instructions: 10000000 cycles: 5141348 heartbeat IPC: 1.96111 cumulative IPC: 1.94502 (Simulation time: 0 hr 32 min 34 sec) 

Warmup complete CPU 0 instructions: 10000003 cycles: 5141349 (Simulation time: 0 hr 32 min 34 sec) 

Heartbeat CPU 0 instructions: 11000001 cycles: 14380247 heartbeat IPC: 0.108238 cumulative IPC: 0.108238 (Simulation time: 0 hr 37 min 11 sec) 
Heartbeat CPU 0 instructions: 12000000 cycles: 27075760 heartbeat IPC: 0.0787679 cumulative IPC: 0.0911808 (Simulation time: 0 hr 43 min 0 sec) 
Heartbeat CPU 0 instructions: 13000001 cycles: 38195718 heartbeat IPC: 0.0899285 cumulative IPC: 0.0907595 (Simulation time: 0 hr 47 min 48 sec) 
Heartbeat CPU 0 instructions: 14000003 cycles: 47264674 heartbeat IPC: 0.110266 cumulative IPC: 0.0949593 (Simulation time: 0 hr 52 min 15 sec) 
Heartbeat CPU 0 instructions: 15000002 cycles: 56625917 heartbeat IPC: 0.106823 cumulative IPC: 0.0971165 (Simulation time: 0 hr 56 min 26 sec) 
Heartbeat CPU 0 instructions: 16000000 cycles: 65370897 heartbeat IPC: 0.114351 cumulative IPC: 0.0996188 (Simulation time: 1 hr 0 min 43 sec) 
Heartbeat CPU 0 instructions: 17000000 cycles: 74496300 heartbeat IPC: 0.109584 cumulative IPC: 0.10093 (Simulation time: 1 hr 5 min 0 sec) 
Heartbeat CPU 0 instructions: 18000002 cycles: 82968524 heartbeat IPC: 0.118033 cumulative IPC: 0.102792 (Simulation time: 1 hr 9 min 26 sec) 
Heartbeat CPU 0 instructions: 19000000 cycles: 91825318 heartbeat IPC: 0.112907 cumulative IPC: 0.103825 (Simulation time: 1 hr 13 min 49 sec) 
Heartbeat CPU 0 instructions: 20000000 cycles: 100653506 heartbeat IPC: 0.113274 cumulative IPC: 0.104699 (Simulation time: 1 hr 18 min 9 sec) 
Heartbeat CPU 0 instructions: 21000000 cycles: 109228097 heartbeat IPC: 0.116624 cumulative IPC: 0.105681 (Simulation time: 1 hr 22 min 25 sec) 
Heartbeat CPU 0 instructions: 22000000 cycles: 117607737 heartbeat IPC: 0.119337 cumulative IPC: 0.106699 (Simulation time: 1 hr 26 min 49 sec) 
Heartbeat CPU 0 instructions: 23000003 cycles: 126488060 heartbeat IPC: 0.112609 cumulative IPC: 0.107131 (Simulation time: 1 hr 31 min 0 sec) 
Heartbeat CPU 0 instructions: 24000000 cycles: 135113449 heartbeat IPC: 0.115936 cumulative IPC: 0.107715 (Simulation time: 1 hr 35 min 15 sec) 
Heartbeat CPU 0 instructions: 25000002 cycles: 144140082 heartbeat IPC: 0.110784 cumulative IPC: 0.107915 (Simulation time: 1 hr 39 min 51 sec) 
Heartbeat CPU 0 instructions: 26000000 cycles: 153246258 heartbeat IPC: 0.109815 cumulative IPC: 0.108032 (Simulation time: 1 hr 44 min 33 sec) 
Heartbeat CPU 0 instructions: 27000003 cycles: 162371258 heartbeat IPC: 0.109589 cumulative IPC: 0.108122 (Simulation time: 1 hr 49 min 18 sec) 
Heartbeat CPU 0 instructions: 28000000 cycles: 171725066 heartbeat IPC: 0.106908 cumulative IPC: 0.108054 (Simulation time: 1 hr 54 min 20 sec) 
Heartbeat CPU 0 instructions: 29000000 cycles: 181175505 heartbeat IPC: 0.105815 cumulative IPC: 0.107934 (Simulation time: 1 hr 59 min 7 sec) 
Heartbeat CPU 0 instructions: 30000001 cycles: 190285898 heartbeat IPC: 0.109765 cumulative IPC: 0.108024 (Simulation time: 2 hr 3 min 37 sec) 
Heartbeat CPU 0 instructions: 31000000 cycles: 199393365 heartbeat IPC: 0.1098 cumulative IPC: 0.108107 (Simulation time: 2 hr 8 min 17 sec) 
Heartbeat CPU 0 instructions: 32000000 cycles: 208263596 heartbeat IPC: 0.112737 cumulative IPC: 0.108309 (Simulation time: 2 hr 12 min 56 sec) 
Heartbeat CPU 0 instructions: 33000000 cycles: 217476139 heartbeat IPC: 0.108548 cumulative IPC: 0.108319 (Simulation time: 2 hr 17 min 19 sec) 
Heartbeat CPU 0 instructions: 34000000 cycles: 226654592 heartbeat IPC: 0.108951 cumulative IPC: 0.108346 (Simulation time: 2 hr 21 min 47 sec) 
Heartbeat CPU 0 instructions: 35000000 cycles: 237651633 heartbeat IPC: 0.0909336 cumulative IPC: 0.107522 (Simulation time: 2 hr 26 min 21 sec) 
Heartbeat CPU 0 instructions: 36000000 cycles: 250279109 heartbeat IPC: 0.0791924 cumulative IPC: 0.106063 (Simulation time: 2 hr 31 min 43 sec) 
Heartbeat CPU 0 instructions: 37000002 cycles: 259426960 heartbeat IPC: 0.109316 cumulative IPC: 0.10618 (Simulation time: 2 hr 36 min 21 sec) 
Heartbeat CPU 0 instructions: 38000000 cycles: 268610968 heartbeat IPC: 0.108885 cumulative IPC: 0.106274 (Simulation time: 2 hr 41 min 2 sec) 
Heartbeat CPU 0 instructions: 39000000 cycles: 277756817 heartbeat IPC: 0.109339 cumulative IPC: 0.106377 (Simulation time: 2 hr 45 min 36 sec) 
Heartbeat CPU 0 instructions: 40000000 cycles: 286793492 heartbeat IPC: 0.11066 cumulative IPC: 0.106514 (Simulation time: 2 hr 50 min 2 sec) 
Heartbeat CPU 0 instructions: 41000000 cycles: 296020982 heartbeat IPC: 0.108372 cumulative IPC: 0.106573 (Simulation time: 2 hr 54 min 53 sec) 
Heartbeat CPU 0 instructions: 42000000 cycles: 305162308 heartbeat IPC: 0.109393 cumulative IPC: 0.106659 (Simulation time: 2 hr 59 min 26 sec) 
Heartbeat CPU 0 instructions: 43000000 cycles: 314084562 heartbeat IPC: 0.112079 cumulative IPC: 0.106816 (Simulation time: 3 hr 4 min 1 sec) 
Heartbeat CPU 0 instructions: 44000000 cycles: 323233914 heartbeat IPC: 0.109297 cumulative IPC: 0.106887 (Simulation time: 3 hr 8 min 43 sec) 
Heartbeat CPU 0 instructions: 45000001 cycles: 332280321 heartbeat IPC: 0.110541 cumulative IPC: 0.106988 (Simulation time: 3 hr 13 min 33 sec) 
Heartbeat CPU 0 instructions: 46000000 cycles: 341550718 heartbeat IPC: 0.10787 cumulative IPC: 0.107012 (Simulation time: 3 hr 18 min 16 sec) 
Heartbeat CPU 0 instructions: 47000002 cycles: 350690164 heartbeat IPC: 0.109416 cumulative IPC: 0.107076 (Simulation time: 3 hr 23 min 11 sec) 
Heartbeat CPU 0 instructions: 48000000 cycles: 359704013 heartbeat IPC: 0.11094 cumulative IPC: 0.107174 (Simulation time: 3 hr 27 min 39 sec) 
Heartbeat CPU 0 instructions: 49000000 cycles: 369101163 heartbeat IPC: 0.106415 cumulative IPC: 0.107155 (Simulation time: 3 hr 32 min 14 sec) 
Heartbeat CPU 0 instructions: 50000002 cycles: 378409558 heartbeat IPC: 0.10743 cumulative IPC: 0.107162 (Simulation time: 3 hr 37 min 1 sec) 
Heartbeat CPU 0 instructions: 51000002 cycles: 387556932 heartbeat IPC: 0.109321 cumulative IPC: 0.107213 (Simulation time: 3 hr 41 min 20 sec) 
Heartbeat CPU 0 instructions: 52000000 cycles: 396731179 heartbeat IPC: 0.109001 cumulative IPC: 0.107255 (Simulation time: 3 hr 45 min 46 sec) 
Heartbeat CPU 0 instructions: 53000000 cycles: 405882516 heartbeat IPC: 0.109274 cumulative IPC: 0.107301 (Simulation time: 3 hr 50 min 18 sec) 
Heartbeat CPU 0 instructions: 54000000 cycles: 414899090 heartbeat IPC: 0.110907 cumulative IPC: 0.107381 (Simulation time: 3 hr 54 min 44 sec) 
Heartbeat CPU 0 instructions: 55000000 cycles: 423925433 heartbeat IPC: 0.110787 cumulative IPC: 0.107454 (Simulation time: 3 hr 59 min 21 sec) 
Heartbeat CPU 0 instructions: 56000000 cycles: 432946864 heartbeat IPC: 0.110847 cumulative IPC: 0.107525 (Simulation time: 4 hr 3 min 17 sec) 
Heartbeat CPU 0 instructions: 57000000 cycles: 442158810 heartbeat IPC: 0.108555 cumulative IPC: 0.107547 (Simulation time: 4 hr 7 min 9 sec) 
Heartbeat CPU 0 instructions: 58000000 cycles: 451232835 heartbeat IPC: 0.110205 cumulative IPC: 0.107601 (Simulation time: 4 hr 11 min 2 sec) 
Heartbeat CPU 0 instructions: 59000001 cycles: 460352734 heartbeat IPC: 0.10965 cumulative IPC: 0.107642 (Simulation time: 4 hr 14 min 53 sec) 
Heartbeat CPU 0 instructions: 60000000 cycles: 469396375 heartbeat IPC: 0.110575 cumulative IPC: 0.107699 (Simulation time: 4 hr 18 min 26 sec) 
Heartbeat CPU 0 instructions: 61000002 cycles: 478415212 heartbeat IPC: 0.110879 cumulative IPC: 0.10776 (Simulation time: 4 hr 22 min 1 sec) 
Heartbeat CPU 0 instructions: 62000000 cycles: 486043104 heartbeat IPC: 0.131098 cumulative IPC: 0.10813 (Simulation time: 4 hr 25 min 22 sec) 
Heartbeat CPU 0 instructions: 63000001 cycles: 494687896 heartbeat IPC: 0.115677 cumulative IPC: 0.108263 (Simulation time: 4 hr 28 min 43 sec) 
Heartbeat CPU 0 instructions: 64000000 cycles: 503550947 heartbeat IPC: 0.112828 cumulative IPC: 0.108345 (Simulation time: 4 hr 31 min 44 sec) 
Heartbeat CPU 0 instructions: 65000000 cycles: 512048476 heartbeat IPC: 0.117681 cumulative IPC: 0.108501 (Simulation time: 4 hr 34 min 24 sec) 
Heartbeat CPU 0 instructions: 66000000 cycles: 520819155 heartbeat IPC: 0.114016 cumulative IPC: 0.108595 (Simulation time: 4 hr 36 min 56 sec) 
Heartbeat CPU 0 instructions: 67000001 cycles: 529820803 heartbeat IPC: 0.111091 cumulative IPC: 0.108638 (Simulation time: 4 hr 39 min 22 sec) 
Heartbeat CPU 0 instructions: 68000000 cycles: 538999456 heartbeat IPC: 0.108948 cumulative IPC: 0.108643 (Simulation time: 4 hr 41 min 39 sec) 
Heartbeat CPU 0 instructions: 69000000 cycles: 547876862 heartbeat IPC: 0.112646 cumulative IPC: 0.108709 (Simulation time: 4 hr 43 min 38 sec) 
Heartbeat CPU 0 instructions: 70000000 cycles: 556583437 heartbeat IPC: 0.114856 cumulative IPC: 0.108806 (Simulation time: 4 hr 45 min 23 sec) 
Heartbeat CPU 0 instructions: 71000000 cycles: 565257403 heartbeat IPC: 0.115288 cumulative IPC: 0.108906 (Simulation time: 4 hr 46 min 57 sec) 
Heartbeat CPU 0 instructions: 72000000 cycles: 573992160 heartbeat IPC: 0.114485 cumulative IPC: 0.108992 (Simulation time: 4 hr 48 min 28 sec) 
Heartbeat CPU 0 instructions: 73000000 cycles: 582844953 heartbeat IPC: 0.112959 cumulative IPC: 0.109052 (Simulation time: 4 hr 49 min 49 sec) 
Heartbeat CPU 0 instructions: 74000001 cycles: 591903997 heartbeat IPC: 0.110387 cumulative IPC: 0.109073 (Simulation time: 4 hr 51 min 8 sec) 
Heartbeat CPU 0 instructions: 75000002 cycles: 600585364 heartbeat IPC: 0.115189 cumulative IPC: 0.109162 (Simulation time: 4 hr 52 min 8 sec) 
Heartbeat CPU 0 instructions: 76000000 cycles: 609311679 heartbeat IPC: 0.114596 cumulative IPC: 0.109241 (Simulation time: 4 hr 53 min 7 sec) 
Heartbeat CPU 0 instructions: 77000003 cycles: 623116443 heartbeat IPC: 0.072439 cumulative IPC: 0.108419 (Simulation time: 4 hr 54 min 5 sec) 
Heartbeat CPU 0 instructions: 78000000 cycles: 632589480 heartbeat IPC: 0.105562 cumulative IPC: 0.108375 (Simulation time: 4 hr 54 min 45 sec) 
Heartbeat CPU 0 instructions: 79000000 cycles: 641377503 heartbeat IPC: 0.113791 cumulative IPC: 0.10845 (Simulation time: 4 hr 55 min 23 sec) 
Heartbeat CPU 0 instructions: 80000000 cycles: 649959499 heartbeat IPC: 0.116523 cumulative IPC: 0.108558 (Simulation time: 4 hr 55 min 52 sec) 
Heartbeat CPU 0 instructions: 81000001 cycles: 658559210 heartbeat IPC: 0.116283 cumulative IPC: 0.108659 (Simulation time: 4 hr 56 min 19 sec) 
Heartbeat CPU 0 instructions: 82000001 cycles: 666650737 heartbeat IPC: 0.123586 cumulative IPC: 0.108842 (Simulation time: 4 hr 56 min 43 sec) 
Heartbeat CPU 0 instructions: 83000002 cycles: 674227430 heartbeat IPC: 0.131984 cumulative IPC: 0.109104 (Simulation time: 4 hr 57 min 3 sec) 
Heartbeat CPU 0 instructions: 84000000 cycles: 681658526 heartbeat IPC: 0.134569 cumulative IPC: 0.109384 (Simulation time: 4 hr 57 min 23 sec) 
Heartbeat CPU 0 instructions: 85000000 cycles: 689431801 heartbeat IPC: 0.128646 cumulative IPC: 0.109603 (Simulation time: 4 hr 57 min 41 sec) 
Heartbeat CPU 0 instructions: 86000001 cycles: 697170615 heartbeat IPC: 0.129219 cumulative IPC: 0.109822 (Simulation time: 4 hr 58 min 0 sec) 
Heartbeat CPU 0 instructions: 87000001 cycles: 710244781 heartbeat IPC: 0.0764867 cumulative IPC: 0.109204 (Simulation time: 4 hr 58 min 18 sec) 
Heartbeat CPU 0 instructions: 88000000 cycles: 719888994 heartbeat IPC: 0.103689 cumulative IPC: 0.109129 (Simulation time: 4 hr 58 min 34 sec) 
Heartbeat CPU 0 instructions: 89000001 cycles: 727947812 heartbeat IPC: 0.124088 cumulative IPC: 0.109296 (Simulation time: 4 hr 58 min 49 sec) 
Heartbeat CPU 0 instructions: 90000001 cycles: 734672197 heartbeat IPC: 0.148712 cumulative IPC: 0.10966 (Simulation time: 4 hr 59 min 1 sec) 
Heartbeat CPU 0 instructions: 91000000 cycles: 744162033 heartbeat IPC: 0.105376 cumulative IPC: 0.109605 (Simulation time: 4 hr 59 min 14 sec) 
Heartbeat CPU 0 instructions: 92000000 cycles: 751979715 heartbeat IPC: 0.127915 cumulative IPC: 0.109796 (Simulation time: 4 hr 59 min 25 sec) 
Heartbeat CPU 0 instructions: 93000000 cycles: 761148708 heartbeat IPC: 0.109063 cumulative IPC: 0.109787 (Simulation time: 4 hr 59 min 37 sec) 
Heartbeat CPU 0 instructions: 94000000 cycles: 770227849 heartbeat IPC: 0.110143 cumulative IPC: 0.109792 (Simulation time: 4 hr 59 min 50 sec) 
Heartbeat CPU 0 instructions: 95000000 cycles: 779316942 heartbeat IPC: 0.110022 cumulative IPC: 0.109794 (Simulation time: 5 hr 0 min 2 sec) 
Heartbeat CPU 0 instructions: 96000000 cycles: 788439512 heartbeat IPC: 0.109618 cumulative IPC: 0.109792 (Simulation time: 5 hr 0 min 13 sec) 
Heartbeat CPU 0 instructions: 97000000 cycles: 797561453 heartbeat IPC: 0.109626 cumulative IPC: 0.10979 (Simulation time: 5 hr 0 min 24 sec) 
Heartbeat CPU 0 instructions: 98000000 cycles: 806667392 heartbeat IPC: 0.109818 cumulative IPC: 0.109791 (Simulation time: 5 hr 0 min 32 sec) 
Heartbeat CPU 0 instructions: 99000000 cycles: 815690449 heartbeat IPC: 0.110827 cumulative IPC: 0.109802 (Simulation time: 5 hr 0 min 40 sec) 
Heartbeat CPU 0 instructions: 100000000 cycles: 824886412 heartbeat IPC: 0.108743 cumulative IPC: 0.10979 (Simulation time: 5 hr 0 min 47 sec) 
Heartbeat CPU 0 instructions: 101000002 cycles: 833954901 heartbeat IPC: 0.110272 cumulative IPC: 0.109796 (Simulation time: 5 hr 0 min 55 sec) 
Heartbeat CPU 0 instructions: 102000000 cycles: 843120352 heartbeat IPC: 0.109105 cumulative IPC: 0.109788 (Simulation time: 5 hr 1 min 3 sec) 
Heartbeat CPU 0 instructions: 103000000 cycles: 852381831 heartbeat IPC: 0.107974 cumulative IPC: 0.109768 (Simulation time: 5 hr 1 min 9 sec) 
Heartbeat CPU 0 instructions: 104000000 cycles: 861561724 heartbeat IPC: 0.108934 cumulative IPC: 0.109759 (Simulation time: 5 hr 1 min 17 sec) 
Heartbeat CPU 0 instructions: 105000000 cycles: 870907640 heartbeat IPC: 0.106999 cumulative IPC: 0.109729 (Simulation time: 5 hr 1 min 24 sec) 
Heartbeat CPU 0 instructions: 106000002 cycles: 880190360 heartbeat IPC: 0.107727 cumulative IPC: 0.109708 (Simulation time: 5 hr 1 min 32 sec) 
Heartbeat CPU 0 instructions: 107000003 cycles: 889357664 heartbeat IPC: 0.109083 cumulative IPC: 0.109702 (Simulation time: 5 hr 1 min 40 sec) 
Heartbeat CPU 0 instructions: 108000000 cycles: 898512830 heartbeat IPC: 0.109228 cumulative IPC: 0.109697 (Simulation time: 5 hr 1 min 47 sec) 
Heartbeat CPU 0 instructions: 109000000 cycles: 907497809 heartbeat IPC: 0.111297 cumulative IPC: 0.109713 (Simulation time: 5 hr 1 min 54 sec) 
Heartbeat CPU 0 instructions: 110000000 cycles: 916612666 heartbeat IPC: 0.109711 cumulative IPC: 0.109713 (Simulation time: 5 hr 2 min 2 sec) 
Finished CPU 0 instructions: 100000000 cycles: 911471319 cummulative IPC: 0.109713 (Simulation time: 5 hr 2 min 2 sec) 

ChampSim completed all CPUs

Region of Interest Statistics

CPU 0 cummulative IPC: 0.109713 instructions: 100000000 cycles: 911471319
LLC TOTAL     ACCESS:   26972051  HIT:   11391700  MISS:   15580351
LLC LOAD      ACCESS:   11725317  HIT:    8792357  MISS:    2932960
LLC RFO       ACCESS:      27378  HIT:      17508  MISS:       9870
LLC PREFETCH  ACCESS:   14885492  HIT:    2348912  MISS:   12536580
LLC WRITEBACK ACCESS:     333864  HIT:     232923  MISS:     100941
