
*** ChampSim Multicore Out-of-Order Simulator ***

Warmup Instructions: 10000000
Simulation Instructions: 100000000
Configuration: 2
Number of CPUs: 1
LLC sets: 2048
LLC ways: 16
Off-chip DRAM Channels: 1 Width: 64-bit Data Rate: 1600 MT/s

CPU 0 runs /datasets/cs240c-wi22-a00-public/data/Assignment2-gz/libquantum_1735B.trace.gz
CPU 0 L1D next line prefetcher
CPU 0 L2C IP-based stride prefetcher
config 2, num_core 1, llc_sets 2048
Heartbeat CPU 0 instructions: 1000001 cycles: 333341 heartbeat IPC: 2.99993 cumulative IPC: 2.99993 (Simulation time: 0 hr 2 min 2 sec) 
Heartbeat CPU 0 instructions: 2000000 cycles: 666674 heartbeat IPC: 3 cumulative IPC: 2.99997 (Simulation time: 0 hr 3 min 43 sec) 
Heartbeat CPU 0 instructions: 3000000 cycles: 989045 heartbeat IPC: 3.10202 cumulative IPC: 3.03323 (Simulation time: 0 hr 5 min 25 sec) 
Heartbeat CPU 0 instructions: 4000000 cycles: 1290770 heartbeat IPC: 3.31428 cumulative IPC: 3.09893 (Simulation time: 0 hr 6 min 58 sec) 
Heartbeat CPU 0 instructions: 5000001 cycles: 1592495 heartbeat IPC: 3.31428 cumulative IPC: 3.13973 (Simulation time: 0 hr 8 min 41 sec) 
Heartbeat CPU 0 instructions: 6000001 cycles: 1894219 heartbeat IPC: 3.31429 cumulative IPC: 3.16753 (Simulation time: 0 hr 10 min 13 sec) 
Heartbeat CPU 0 instructions: 7000002 cycles: 2195942 heartbeat IPC: 3.3143 cumulative IPC: 3.1877 (Simulation time: 0 hr 11 min 34 sec) 
Heartbeat CPU 0 instructions: 8000000 cycles: 2501897 heartbeat IPC: 3.26845 cumulative IPC: 3.19757 (Simulation time: 0 hr 12 min 45 sec) 
Heartbeat CPU 0 instructions: 9000000 cycles: 2835230 heartbeat IPC: 3 cumulative IPC: 3.17435 (Simulation time: 0 hr 14 min 10 sec) 
Heartbeat CPU 0 instructions: 10000002 cycles: 3168564 heartbeat IPC: 3 cumulative IPC: 3.156 (Simulation time: 0 hr 15 min 30 sec) 

Warmup complete CPU 0 instructions: 10000002 cycles: 3168564 (Simulation time: 0 hr 15 min 30 sec) 

Heartbeat CPU 0 instructions: 11000001 cycles: 4593870 heartbeat IPC: 0.701603 cumulative IPC: 0.701603 (Simulation time: 0 hr 18 min 2 sec) 
Heartbeat CPU 0 instructions: 12000000 cycles: 6018722 heartbeat IPC: 0.701827 cumulative IPC: 0.701715 (Simulation time: 0 hr 20 min 14 sec) 
Heartbeat CPU 0 instructions: 13000001 cycles: 7839966 heartbeat IPC: 0.549076 cumulative IPC: 0.642205 (Simulation time: 0 hr 22 min 5 sec) 
Heartbeat CPU 0 instructions: 14000000 cycles: 10329688 heartbeat IPC: 0.401651 cumulative IPC: 0.558571 (Simulation time: 0 hr 23 min 57 sec) 
Heartbeat CPU 0 instructions: 15000000 cycles: 12812259 heartbeat IPC: 0.402808 cumulative IPC: 0.518473 (Simulation time: 0 hr 25 min 41 sec) 
Heartbeat CPU 0 instructions: 16000000 cycles: 15281018 heartbeat IPC: 0.405062 cumulative IPC: 0.495358 (Simulation time: 0 hr 27 min 24 sec) 
Heartbeat CPU 0 instructions: 17000002 cycles: 17765708 heartbeat IPC: 0.402465 cumulative IPC: 0.479546 (Simulation time: 0 hr 29 min 8 sec) 
Heartbeat CPU 0 instructions: 18000001 cycles: 19933792 heartbeat IPC: 0.461236 cumulative IPC: 0.477178 (Simulation time: 0 hr 30 min 55 sec) 
Heartbeat CPU 0 instructions: 19000000 cycles: 21433373 heartbeat IPC: 0.666852 cumulative IPC: 0.492751 (Simulation time: 0 hr 32 min 42 sec) 
Heartbeat CPU 0 instructions: 20000000 cycles: 22850774 heartbeat IPC: 0.705517 cumulative IPC: 0.508073 (Simulation time: 0 hr 34 min 39 sec) 
Heartbeat CPU 0 instructions: 21000001 cycles: 24356795 heartbeat IPC: 0.664002 cumulative IPC: 0.519156 (Simulation time: 0 hr 37 min 7 sec) 
Heartbeat CPU 0 instructions: 22000000 cycles: 25856301 heartbeat IPC: 0.666886 cumulative IPC: 0.52892 (Simulation time: 0 hr 39 min 2 sec) 
Heartbeat CPU 0 instructions: 23000000 cycles: 28042941 heartbeat IPC: 0.457323 cumulative IPC: 0.522626 (Simulation time: 0 hr 40 min 45 sec) 
Heartbeat CPU 0 instructions: 24000000 cycles: 30712438 heartbeat IPC: 0.374602 cumulative IPC: 0.50828 (Simulation time: 0 hr 42 min 28 sec) 
Heartbeat CPU 0 instructions: 25000000 cycles: 33381310 heartbeat IPC: 0.37469 cumulative IPC: 0.496479 (Simulation time: 0 hr 44 min 28 sec) 
Heartbeat CPU 0 instructions: 26000000 cycles: 36030062 heartbeat IPC: 0.377536 cumulative IPC: 0.486892 (Simulation time: 0 hr 46 min 7 sec) 
Heartbeat CPU 0 instructions: 27000001 cycles: 38696385 heartbeat IPC: 0.375049 cumulative IPC: 0.478498 (Simulation time: 0 hr 47 min 39 sec) 
Heartbeat CPU 0 instructions: 28000000 cycles: 40665207 heartbeat IPC: 0.507917 cumulative IPC: 0.480043 (Simulation time: 0 hr 49 min 27 sec) 
Heartbeat CPU 0 instructions: 29000000 cycles: 42087149 heartbeat IPC: 0.703264 cumulative IPC: 0.488199 (Simulation time: 0 hr 51 min 16 sec) 
Heartbeat CPU 0 instructions: 30000001 cycles: 43508970 heartbeat IPC: 0.703324 cumulative IPC: 0.495781 (Simulation time: 0 hr 53 min 12 sec) 
Heartbeat CPU 0 instructions: 31000000 cycles: 44930865 heartbeat IPC: 0.703286 cumulative IPC: 0.502846 (Simulation time: 0 hr 55 min 19 sec) 
Heartbeat CPU 0 instructions: 32000000 cycles: 46352681 heartbeat IPC: 0.703326 cumulative IPC: 0.509447 (Simulation time: 0 hr 57 min 8 sec) 
Heartbeat CPU 0 instructions: 33000002 cycles: 48395315 heartbeat IPC: 0.489565 cumulative IPC: 0.508549 (Simulation time: 0 hr 58 min 56 sec) 
Heartbeat CPU 0 instructions: 34000000 cycles: 50573540 heartbeat IPC: 0.459088 cumulative IPC: 0.506276 (Simulation time: 1 hr 0 min 25 sec) 
Heartbeat CPU 0 instructions: 35000000 cycles: 52734613 heartbeat IPC: 0.462733 cumulative IPC: 0.504377 (Simulation time: 1 hr 2 min 5 sec) 
Heartbeat CPU 0 instructions: 36000000 cycles: 54900649 heartbeat IPC: 0.461673 cumulative IPC: 0.502589 (Simulation time: 1 hr 3 min 58 sec) 
Heartbeat CPU 0 instructions: 37000002 cycles: 57075193 heartbeat IPC: 0.459867 cumulative IPC: 0.500866 (Simulation time: 1 hr 5 min 53 sec) 
Heartbeat CPU 0 instructions: 38000003 cycles: 58783861 heartbeat IPC: 0.585252 cumulative IPC: 0.503459 (Simulation time: 1 hr 8 min 1 sec) 
Heartbeat CPU 0 instructions: 39000000 cycles: 60195267 heartbeat IPC: 0.708511 cumulative IPC: 0.508534 (Simulation time: 1 hr 10 min 8 sec) 
Heartbeat CPU 0 instructions: 40000000 cycles: 61490536 heartbeat IPC: 0.77204 cumulative IPC: 0.514386 (Simulation time: 1 hr 12 min 5 sec) 
Heartbeat CPU 0 instructions: 41000000 cycles: 62892782 heartbeat IPC: 0.713142 cumulative IPC: 0.519052 (Simulation time: 1 hr 13 min 56 sec) 
Heartbeat CPU 0 instructions: 42000001 cycles: 64304187 heartbeat IPC: 0.708515 cumulative IPC: 0.523426 (Simulation time: 1 hr 16 min 20 sec) 
Heartbeat CPU 0 instructions: 43000000 cycles: 66356712 heartbeat IPC: 0.487204 cumulative IPC: 0.52225 (Simulation time: 1 hr 18 min 2 sec) 
Heartbeat CPU 0 instructions: 44000000 cycles: 68522400 heartbeat IPC: 0.461747 cumulative IPC: 0.520245 (Simulation time: 1 hr 19 min 58 sec) 
Heartbeat CPU 0 instructions: 45000001 cycles: 70684490 heartbeat IPC: 0.462516 cumulative IPC: 0.518396 (Simulation time: 1 hr 21 min 54 sec) 
Heartbeat CPU 0 instructions: 46000002 cycles: 72836619 heartbeat IPC: 0.464657 cumulative IPC: 0.516736 (Simulation time: 1 hr 23 min 50 sec) 
Heartbeat CPU 0 instructions: 47000000 cycles: 75004138 heartbeat IPC: 0.461356 cumulative IPC: 0.515065 (Simulation time: 1 hr 25 min 45 sec) 
Heartbeat CPU 0 instructions: 48000000 cycles: 76741927 heartbeat IPC: 0.575444 cumulative IPC: 0.516491 (Simulation time: 1 hr 27 min 39 sec) 
Heartbeat CPU 0 instructions: 49000002 cycles: 78261519 heartbeat IPC: 0.658073 cumulative IPC: 0.519356 (Simulation time: 1 hr 29 min 37 sec) 
Heartbeat CPU 0 instructions: 50000001 cycles: 79780987 heartbeat IPC: 0.658124 cumulative IPC: 0.522108 (Simulation time: 1 hr 31 min 45 sec) 
Heartbeat CPU 0 instructions: 51000000 cycles: 81300558 heartbeat IPC: 0.65808 cumulative IPC: 0.524753 (Simulation time: 1 hr 33 min 35 sec) 
Heartbeat CPU 0 instructions: 52000000 cycles: 82820232 heartbeat IPC: 0.658036 cumulative IPC: 0.527296 (Simulation time: 1 hr 35 min 27 sec) 
Heartbeat CPU 0 instructions: 53000002 cycles: 84339936 heartbeat IPC: 0.658024 cumulative IPC: 0.529743 (Simulation time: 1 hr 37 min 25 sec) 
Heartbeat CPU 0 instructions: 54000001 cycles: 85859076 heartbeat IPC: 0.658267 cumulative IPC: 0.532105 (Simulation time: 1 hr 39 min 29 sec) 
Heartbeat CPU 0 instructions: 55000000 cycles: 87378728 heartbeat IPC: 0.658045 cumulative IPC: 0.534377 (Simulation time: 1 hr 41 min 53 sec) 
Heartbeat CPU 0 instructions: 56000000 cycles: 88898197 heartbeat IPC: 0.658125 cumulative IPC: 0.536571 (Simulation time: 1 hr 44 min 15 sec) 
Heartbeat CPU 0 instructions: 57000000 cycles: 90417790 heartbeat IPC: 0.658071 cumulative IPC: 0.538687 (Simulation time: 1 hr 46 min 24 sec) 
Heartbeat CPU 0 instructions: 58000002 cycles: 91937261 heartbeat IPC: 0.658125 cumulative IPC: 0.540731 (Simulation time: 1 hr 48 min 23 sec) 
Heartbeat CPU 0 instructions: 59000001 cycles: 93340860 heartbeat IPC: 0.712453 cumulative IPC: 0.543404 (Simulation time: 1 hr 50 min 18 sec) 
Heartbeat CPU 0 instructions: 60000000 cycles: 94529676 heartbeat IPC: 0.841172 cumulative IPC: 0.547279 (Simulation time: 1 hr 52 min 12 sec) 
Heartbeat CPU 0 instructions: 61000003 cycles: 96049667 heartbeat IPC: 0.657901 cumulative IPC: 0.549089 (Simulation time: 1 hr 54 min 27 sec) 
Heartbeat CPU 0 instructions: 62000002 cycles: 97568397 heartbeat IPC: 0.658444 cumulative IPC: 0.550848 (Simulation time: 1 hr 56 min 35 sec) 
Heartbeat CPU 0 instructions: 63000001 cycles: 99087313 heartbeat IPC: 0.658364 cumulative IPC: 0.552551 (Simulation time: 1 hr 58 min 33 sec) 
Heartbeat CPU 0 instructions: 64000000 cycles: 100606777 heartbeat IPC: 0.658126 cumulative IPC: 0.554197 (Simulation time: 2 hr 0 min 40 sec) 
Heartbeat CPU 0 instructions: 65000001 cycles: 102126265 heartbeat IPC: 0.658117 cumulative IPC: 0.555793 (Simulation time: 2 hr 2 min 39 sec) 
Heartbeat CPU 0 instructions: 66000000 cycles: 103641817 heartbeat IPC: 0.659825 cumulative IPC: 0.557362 (Simulation time: 2 hr 4 min 56 sec) 
Heartbeat CPU 0 instructions: 67000001 cycles: 105126106 heartbeat IPC: 0.673724 cumulative IPC: 0.559056 (Simulation time: 2 hr 6 min 54 sec) 
Heartbeat CPU 0 instructions: 68000000 cycles: 106618229 heartbeat IPC: 0.670185 cumulative IPC: 0.560659 (Simulation time: 2 hr 9 min 8 sec) 
Heartbeat CPU 0 instructions: 69000002 cycles: 108110376 heartbeat IPC: 0.670177 cumulative IPC: 0.562216 (Simulation time: 2 hr 11 min 18 sec) 
Heartbeat CPU 0 instructions: 70000001 cycles: 109602597 heartbeat IPC: 0.670141 cumulative IPC: 0.563729 (Simulation time: 2 hr 13 min 22 sec) 
Heartbeat CPU 0 instructions: 71000003 cycles: 111154252 heartbeat IPC: 0.644474 cumulative IPC: 0.56489 (Simulation time: 2 hr 15 min 44 sec) 
Heartbeat CPU 0 instructions: 72000000 cycles: 113308009 heartbeat IPC: 0.464304 cumulative IPC: 0.562923 (Simulation time: 2 hr 17 min 54 sec) 
Heartbeat CPU 0 instructions: 73000000 cycles: 115479048 heartbeat IPC: 0.460609 cumulative IPC: 0.560945 (Simulation time: 2 hr 19 min 54 sec) 
Heartbeat CPU 0 instructions: 74000000 cycles: 117632149 heartbeat IPC: 0.464446 cumulative IPC: 0.55913 (Simulation time: 2 hr 21 min 30 sec) 
Heartbeat CPU 0 instructions: 75000000 cycles: 119795885 heartbeat IPC: 0.462164 cumulative IPC: 0.557331 (Simulation time: 2 hr 23 min 30 sec) 
Heartbeat CPU 0 instructions: 76000000 cycles: 121966788 heartbeat IPC: 0.460638 cumulative IPC: 0.555564 (Simulation time: 2 hr 26 min 17 sec) 
Heartbeat CPU 0 instructions: 77000001 cycles: 123559062 heartbeat IPC: 0.628033 cumulative IPC: 0.556522 (Simulation time: 2 hr 29 min 10 sec) 
Heartbeat CPU 0 instructions: 78000000 cycles: 125064212 heartbeat IPC: 0.664385 cumulative IPC: 0.557854 (Simulation time: 2 hr 31 min 44 sec) 
Heartbeat CPU 0 instructions: 79000001 cycles: 126152761 heartbeat IPC: 0.918655 cumulative IPC: 0.561048 (Simulation time: 2 hr 33 min 51 sec) 
Heartbeat CPU 0 instructions: 80000000 cycles: 127617183 heartbeat IPC: 0.682863 cumulative IPC: 0.562481 (Simulation time: 2 hr 36 min 20 sec) 
Heartbeat CPU 0 instructions: 81000002 cycles: 129218377 heartbeat IPC: 0.624535 cumulative IPC: 0.563269 (Simulation time: 2 hr 38 min 25 sec) 
Heartbeat CPU 0 instructions: 82000003 cycles: 131366451 heartbeat IPC: 0.465534 cumulative IPC: 0.561632 (Simulation time: 2 hr 40 min 16 sec) 
Heartbeat CPU 0 instructions: 83000000 cycles: 133524773 heartbeat IPC: 0.463322 cumulative IPC: 0.560004 (Simulation time: 2 hr 42 min 10 sec) 
Heartbeat CPU 0 instructions: 84000000 cycles: 135685689 heartbeat IPC: 0.462767 cumulative IPC: 0.558418 (Simulation time: 2 hr 43 min 56 sec) 
Heartbeat CPU 0 instructions: 85000002 cycles: 137838117 heartbeat IPC: 0.464593 cumulative IPC: 0.556919 (Simulation time: 2 hr 45 min 39 sec) 
Heartbeat CPU 0 instructions: 86000002 cycles: 140005139 heartbeat IPC: 0.461463 cumulative IPC: 0.555407 (Simulation time: 2 hr 47 min 33 sec) 
Heartbeat CPU 0 instructions: 87000002 cycles: 141622648 heartbeat IPC: 0.618235 cumulative IPC: 0.556141 (Simulation time: 2 hr 49 min 48 sec) 
Heartbeat CPU 0 instructions: 88000000 cycles: 143195742 heartbeat IPC: 0.635689 cumulative IPC: 0.557035 (Simulation time: 2 hr 51 min 53 sec) 
Heartbeat CPU 0 instructions: 89000000 cycles: 144768910 heartbeat IPC: 0.63566 cumulative IPC: 0.557908 (Simulation time: 2 hr 54 min 6 sec) 
Heartbeat CPU 0 instructions: 90000000 cycles: 146681470 heartbeat IPC: 0.522859 cumulative IPC: 0.557441 (Simulation time: 2 hr 56 min 4 sec) 
Heartbeat CPU 0 instructions: 91000001 cycles: 149441950 heartbeat IPC: 0.362256 cumulative IPC: 0.553758 (Simulation time: 2 hr 57 min 58 sec) 
Heartbeat CPU 0 instructions: 92000000 cycles: 152176018 heartbeat IPC: 0.365755 cumulative IPC: 0.550308 (Simulation time: 2 hr 59 min 56 sec) 
Heartbeat CPU 0 instructions: 93000001 cycles: 154917892 heartbeat IPC: 0.364714 cumulative IPC: 0.546955 (Simulation time: 3 hr 1 min 56 sec) 
Heartbeat CPU 0 instructions: 94000001 cycles: 157465271 heartbeat IPC: 0.39256 cumulative IPC: 0.544406 (Simulation time: 3 hr 3 min 50 sec) 
Heartbeat CPU 0 instructions: 95000000 cycles: 159037205 heartbeat IPC: 0.636158 cumulative IPC: 0.545331 (Simulation time: 3 hr 6 min 7 sec) 
Heartbeat CPU 0 instructions: 96000000 cycles: 160360995 heartbeat IPC: 0.755407 cumulative IPC: 0.5471 (Simulation time: 3 hr 8 min 24 sec) 
Heartbeat CPU 0 instructions: 97000002 cycles: 161907814 heartbeat IPC: 0.646489 cumulative IPC: 0.548069 (Simulation time: 3 hr 10 min 48 sec) 
Heartbeat CPU 0 instructions: 98000001 cycles: 164030975 heartbeat IPC: 0.470995 cumulative IPC: 0.547051 (Simulation time: 3 hr 13 min 2 sec) 
Heartbeat CPU 0 instructions: 99000003 cycles: 166738501 heartbeat IPC: 0.369342 cumulative IPC: 0.54411 (Simulation time: 3 hr 15 min 15 sec) 
Heartbeat CPU 0 instructions: 100000000 cycles: 169451286 heartbeat IPC: 0.368624 cumulative IPC: 0.541247 (Simulation time: 3 hr 17 min 1 sec) 
Heartbeat CPU 0 instructions: 101000000 cycles: 172146908 heartbeat IPC: 0.370972 cumulative IPC: 0.538531 (Simulation time: 3 hr 18 min 51 sec) 
Heartbeat CPU 0 instructions: 102000000 cycles: 174395322 heartbeat IPC: 0.444758 cumulative IPC: 0.537299 (Simulation time: 3 hr 20 min 42 sec) 
Heartbeat CPU 0 instructions: 103000002 cycles: 175866187 heartbeat IPC: 0.679873 cumulative IPC: 0.538513 (Simulation time: 3 hr 22 min 30 sec) 
Heartbeat CPU 0 instructions: 104000000 cycles: 177337123 heartbeat IPC: 0.679838 cumulative IPC: 0.539707 (Simulation time: 3 hr 24 min 32 sec) 
Heartbeat CPU 0 instructions: 105000000 cycles: 178808004 heartbeat IPC: 0.679865 cumulative IPC: 0.540881 (Simulation time: 3 hr 26 min 23 sec) 
Heartbeat CPU 0 instructions: 106000003 cycles: 180278963 heartbeat IPC: 0.679831 cumulative IPC: 0.542035 (Simulation time: 3 hr 28 min 20 sec) 
Heartbeat CPU 0 instructions: 107000000 cycles: 182425027 heartbeat IPC: 0.465968 cumulative IPC: 0.541124 (Simulation time: 3 hr 30 min 19 sec) 
Heartbeat CPU 0 instructions: 108000000 cycles: 184923270 heartbeat IPC: 0.400281 cumulative IPC: 0.539188 (Simulation time: 3 hr 32 min 10 sec) 
Heartbeat CPU 0 instructions: 109000002 cycles: 187402006 heartbeat IPC: 0.403432 cumulative IPC: 0.537362 (Simulation time: 3 hr 33 min 50 sec) 
Heartbeat CPU 0 instructions: 110000002 cycles: 189890691 heartbeat IPC: 0.401819 cumulative IPC: 0.535555 (Simulation time: 3 hr 35 min 38 sec) 
Finished CPU 0 instructions: 100000000 cycles: 186722127 cummulative IPC: 0.535555 (Simulation time: 3 hr 35 min 38 sec) 

ChampSim completed all CPUs

Region of Interest Statistics

CPU 0 cummulative IPC: 0.535555 instructions: 100000000 cycles: 186722127
LLC TOTAL     ACCESS:    3801551  HIT:      95020  MISS:    3706531
LLC LOAD      ACCESS:     657069  HIT:      28718  MISS:     628351
LLC RFO       ACCESS:         20  HIT:          6  MISS:         14
LLC PREFETCH  ACCESS:    2132357  HIT:      64720  MISS:    2067637
LLC WRITEBACK ACCESS:    1012105  HIT:       1576  MISS:    1010529
