
*** ChampSim Multicore Out-of-Order Simulator ***

Warmup Instructions: 10000000
Simulation Instructions: 100000000
Configuration: 2
Number of CPUs: 1
LLC sets: 2048
LLC ways: 16
Off-chip DRAM Channels: 1 Width: 64-bit Data Rate: 1600 MT/s

CPU 0 runs /datasets/cs240c-wi22-a00-public/data/Assignment2-gz/soplex_66B.trace.gz
CPU 0 L1D next line prefetcher
CPU 0 L2C IP-based stride prefetcher
config 2, num_core 1, llc_sets 2048
Heartbeat CPU 0 instructions: 1000003 cycles: 415144 heartbeat IPC: 2.40881 cumulative IPC: 2.40881 (Simulation time: 0 hr 2 min 4 sec) 
Heartbeat CPU 0 instructions: 2000003 cycles: 837687 heartbeat IPC: 2.36662 cumulative IPC: 2.38753 (Simulation time: 0 hr 4 min 13 sec) 
Heartbeat CPU 0 instructions: 3000003 cycles: 1243407 heartbeat IPC: 2.46475 cumulative IPC: 2.41273 (Simulation time: 0 hr 6 min 19 sec) 
Heartbeat CPU 0 instructions: 4000000 cycles: 1627528 heartbeat IPC: 2.60334 cumulative IPC: 2.45772 (Simulation time: 0 hr 8 min 14 sec) 
Heartbeat CPU 0 instructions: 5000000 cycles: 2038549 heartbeat IPC: 2.43297 cumulative IPC: 2.45272 (Simulation time: 0 hr 10 min 6 sec) 
Heartbeat CPU 0 instructions: 6000000 cycles: 2510535 heartbeat IPC: 2.11871 cumulative IPC: 2.38993 (Simulation time: 0 hr 12 min 13 sec) 
Heartbeat CPU 0 instructions: 7000002 cycles: 2883202 heartbeat IPC: 2.68337 cumulative IPC: 2.42786 (Simulation time: 0 hr 14 min 18 sec) 
Heartbeat CPU 0 instructions: 8000000 cycles: 3308910 heartbeat IPC: 2.34902 cumulative IPC: 2.41771 (Simulation time: 0 hr 16 min 33 sec) 
Heartbeat CPU 0 instructions: 9000001 cycles: 3747483 heartbeat IPC: 2.28012 cumulative IPC: 2.40161 (Simulation time: 0 hr 18 min 39 sec) 
Heartbeat CPU 0 instructions: 10000002 cycles: 4159603 heartbeat IPC: 2.42648 cumulative IPC: 2.40408 (Simulation time: 0 hr 20 min 35 sec) 

Warmup complete CPU 0 instructions: 10000002 cycles: 4159603 (Simulation time: 0 hr 20 min 35 sec) 

Heartbeat CPU 0 instructions: 11000001 cycles: 7357666 heartbeat IPC: 0.312689 cumulative IPC: 0.312689 (Simulation time: 0 hr 22 min 58 sec) 
Heartbeat CPU 0 instructions: 12000000 cycles: 8711034 heartbeat IPC: 0.738897 cumulative IPC: 0.439422 (Simulation time: 0 hr 24 min 42 sec) 
Heartbeat CPU 0 instructions: 13000001 cycles: 11326497 heartbeat IPC: 0.382342 cumulative IPC: 0.418591 (Simulation time: 0 hr 27 min 8 sec) 
Heartbeat CPU 0 instructions: 14000002 cycles: 13845494 heartbeat IPC: 0.396984 cumulative IPC: 0.412972 (Simulation time: 0 hr 29 min 16 sec) 
Heartbeat CPU 0 instructions: 15000002 cycles: 16497004 heartbeat IPC: 0.377144 cumulative IPC: 0.405272 (Simulation time: 0 hr 31 min 12 sec) 
Heartbeat CPU 0 instructions: 16000000 cycles: 19322656 heartbeat IPC: 0.3539 cumulative IPC: 0.395699 (Simulation time: 0 hr 33 min 24 sec) 
Heartbeat CPU 0 instructions: 17000001 cycles: 21423068 heartbeat IPC: 0.476098 cumulative IPC: 0.405481 (Simulation time: 0 hr 35 min 46 sec) 
Heartbeat CPU 0 instructions: 18000000 cycles: 23378469 heartbeat IPC: 0.511404 cumulative IPC: 0.416258 (Simulation time: 0 hr 38 min 2 sec) 
Heartbeat CPU 0 instructions: 19000002 cycles: 26768065 heartbeat IPC: 0.295021 cumulative IPC: 0.398081 (Simulation time: 0 hr 40 min 26 sec) 
Heartbeat CPU 0 instructions: 20000000 cycles: 28116349 heartbeat IPC: 0.741682 cumulative IPC: 0.417419 (Simulation time: 0 hr 42 min 7 sec) 
Heartbeat CPU 0 instructions: 21000000 cycles: 30286700 heartbeat IPC: 0.460755 cumulative IPC: 0.421019 (Simulation time: 0 hr 44 min 11 sec) 
Heartbeat CPU 0 instructions: 22000000 cycles: 32924697 heartbeat IPC: 0.379075 cumulative IPC: 0.417172 (Simulation time: 0 hr 46 min 27 sec) 
Heartbeat CPU 0 instructions: 23000000 cycles: 35498851 heartbeat IPC: 0.388477 cumulative IPC: 0.414815 (Simulation time: 0 hr 48 min 26 sec) 
Heartbeat CPU 0 instructions: 24000000 cycles: 38123406 heartbeat IPC: 0.381017 cumulative IPC: 0.412203 (Simulation time: 0 hr 50 min 49 sec) 
Heartbeat CPU 0 instructions: 25000003 cycles: 40243880 heartbeat IPC: 0.471594 cumulative IPC: 0.415694 (Simulation time: 0 hr 53 min 41 sec) 
Heartbeat CPU 0 instructions: 26000001 cycles: 42285701 heartbeat IPC: 0.489758 cumulative IPC: 0.41966 (Simulation time: 0 hr 55 min 41 sec) 
Heartbeat CPU 0 instructions: 27000002 cycles: 45539038 heartbeat IPC: 0.307377 cumulative IPC: 0.410832 (Simulation time: 0 hr 58 min 18 sec) 
Heartbeat CPU 0 instructions: 28000000 cycles: 46874260 heartbeat IPC: 0.748938 cumulative IPC: 0.421401 (Simulation time: 1 hr 0 min 4 sec) 
Heartbeat CPU 0 instructions: 29000002 cycles: 48671662 heartbeat IPC: 0.55636 cumulative IPC: 0.426851 (Simulation time: 1 hr 1 min 55 sec) 
Heartbeat CPU 0 instructions: 30000000 cycles: 51432376 heartbeat IPC: 0.362224 cumulative IPC: 0.423076 (Simulation time: 1 hr 4 min 41 sec) 
Heartbeat CPU 0 instructions: 31000001 cycles: 54040606 heartbeat IPC: 0.383402 cumulative IPC: 0.421002 (Simulation time: 1 hr 6 min 32 sec) 
Heartbeat CPU 0 instructions: 32000000 cycles: 56623774 heartbeat IPC: 0.387121 cumulative IPC: 0.419334 (Simulation time: 1 hr 8 min 34 sec) 
Heartbeat CPU 0 instructions: 33000001 cycles: 59652223 heartbeat IPC: 0.330202 cumulative IPC: 0.41447 (Simulation time: 1 hr 11 min 6 sec) 
Heartbeat CPU 0 instructions: 34000003 cycles: 61564077 heartbeat IPC: 0.523054 cumulative IPC: 0.418086 (Simulation time: 1 hr 13 min 23 sec) 
Heartbeat CPU 0 instructions: 35000003 cycles: 64464231 heartbeat IPC: 0.344809 cumulative IPC: 0.414562 (Simulation time: 1 hr 15 min 44 sec) 
Heartbeat CPU 0 instructions: 36000000 cycles: 65798362 heartbeat IPC: 0.749549 cumulative IPC: 0.421812 (Simulation time: 1 hr 17 min 20 sec) 
Heartbeat CPU 0 instructions: 37000000 cycles: 68307993 heartbeat IPC: 0.398465 cumulative IPC: 0.420899 (Simulation time: 1 hr 19 min 16 sec) 
Heartbeat CPU 0 instructions: 38000001 cycles: 70671846 heartbeat IPC: 0.423039 cumulative IPC: 0.420975 (Simulation time: 1 hr 21 min 10 sec) 
Heartbeat CPU 0 instructions: 39000003 cycles: 73300769 heartbeat IPC: 0.380385 cumulative IPC: 0.419432 (Simulation time: 1 hr 22 min 50 sec) 
Heartbeat CPU 0 instructions: 40000000 cycles: 76084256 heartbeat IPC: 0.359261 cumulative IPC: 0.417103 (Simulation time: 1 hr 24 min 53 sec) 
Heartbeat CPU 0 instructions: 41000001 cycles: 78102302 heartbeat IPC: 0.495529 cumulative IPC: 0.419244 (Simulation time: 1 hr 27 min 10 sec) 
Heartbeat CPU 0 instructions: 42000003 cycles: 79979970 heartbeat IPC: 0.532577 cumulative IPC: 0.42205 (Simulation time: 1 hr 29 min 22 sec) 
Heartbeat CPU 0 instructions: 43000000 cycles: 83229497 heartbeat IPC: 0.307736 cumulative IPC: 0.417352 (Simulation time: 1 hr 31 min 39 sec) 
Heartbeat CPU 0 instructions: 44000000 cycles: 84564641 heartbeat IPC: 0.748983 cumulative IPC: 0.422859 (Simulation time: 1 hr 33 min 15 sec) 
Heartbeat CPU 0 instructions: 45000003 cycles: 86705641 heartbeat IPC: 0.467073 cumulative IPC: 0.424006 (Simulation time: 1 hr 35 min 5 sec) 
Heartbeat CPU 0 instructions: 46000003 cycles: 89292312 heartbeat IPC: 0.386597 cumulative IPC: 0.422869 (Simulation time: 1 hr 37 min 22 sec) 
Heartbeat CPU 0 instructions: 47000001 cycles: 91845565 heartbeat IPC: 0.391656 cumulative IPC: 0.42196 (Simulation time: 1 hr 39 min 13 sec) 
Heartbeat CPU 0 instructions: 48000000 cycles: 94435148 heartbeat IPC: 0.386162 cumulative IPC: 0.420933 (Simulation time: 1 hr 40 min 56 sec) 
Heartbeat CPU 0 instructions: 49000000 cycles: 97722560 heartbeat IPC: 0.304191 cumulative IPC: 0.416832 (Simulation time: 1 hr 43 min 52 sec) 
Heartbeat CPU 0 instructions: 50000003 cycles: 103678957 heartbeat IPC: 0.167887 cumulative IPC: 0.401932 (Simulation time: 1 hr 46 min 58 sec) 
Heartbeat CPU 0 instructions: 51000002 cycles: 106105344 heartbeat IPC: 0.412135 cumulative IPC: 0.402175 (Simulation time: 1 hr 49 min 42 sec) 
Heartbeat CPU 0 instructions: 52000000 cycles: 110403178 heartbeat IPC: 0.232675 cumulative IPC: 0.395318 (Simulation time: 1 hr 52 min 21 sec) 
Heartbeat CPU 0 instructions: 53000000 cycles: 113325208 heartbeat IPC: 0.342228 cumulative IPC: 0.393897 (Simulation time: 1 hr 54 min 56 sec) 
Heartbeat CPU 0 instructions: 54000000 cycles: 115905937 heartbeat IPC: 0.387487 cumulative IPC: 0.393749 (Simulation time: 1 hr 57 min 26 sec) 
Heartbeat CPU 0 instructions: 55000002 cycles: 120116833 heartbeat IPC: 0.23748 cumulative IPC: 0.388074 (Simulation time: 1 hr 59 min 58 sec) 
Heartbeat CPU 0 instructions: 56000000 cycles: 123959080 heartbeat IPC: 0.260264 cumulative IPC: 0.383975 (Simulation time: 2 hr 2 min 53 sec) 
Heartbeat CPU 0 instructions: 57000003 cycles: 126611449 heartbeat IPC: 0.377023 cumulative IPC: 0.383824 (Simulation time: 2 hr 5 min 14 sec) 
Heartbeat CPU 0 instructions: 58000000 cycles: 128864517 heartbeat IPC: 0.443838 cumulative IPC: 0.384909 (Simulation time: 2 hr 7 min 34 sec) 
Heartbeat CPU 0 instructions: 59000002 cycles: 130381049 heartbeat IPC: 0.659401 cumulative IPC: 0.388207 (Simulation time: 2 hr 9 min 50 sec) 
Heartbeat CPU 0 instructions: 60000000 cycles: 131601626 heartbeat IPC: 0.819283 cumulative IPC: 0.392335 (Simulation time: 2 hr 11 min 54 sec) 
Heartbeat CPU 0 instructions: 61000002 cycles: 134485533 heartbeat IPC: 0.346753 cumulative IPC: 0.391327 (Simulation time: 2 hr 14 min 52 sec) 
Heartbeat CPU 0 instructions: 62000002 cycles: 137205724 heartbeat IPC: 0.367621 cumulative IPC: 0.390842 (Simulation time: 2 hr 18 min 30 sec) 
Heartbeat CPU 0 instructions: 63000002 cycles: 139295694 heartbeat IPC: 0.478476 cumulative IPC: 0.392197 (Simulation time: 2 hr 21 min 46 sec) 
Heartbeat CPU 0 instructions: 64000000 cycles: 141698767 heartbeat IPC: 0.416133 cumulative IPC: 0.392615 (Simulation time: 2 hr 24 min 50 sec) 
Heartbeat CPU 0 instructions: 65000000 cycles: 146016204 heartbeat IPC: 0.231619 cumulative IPC: 0.387715 (Simulation time: 2 hr 29 min 5 sec) 
Heartbeat CPU 0 instructions: 66000001 cycles: 147499703 heartbeat IPC: 0.674083 cumulative IPC: 0.390679 (Simulation time: 2 hr 31 min 43 sec) 
Heartbeat CPU 0 instructions: 67000000 cycles: 148946078 heartbeat IPC: 0.691383 cumulative IPC: 0.393683 (Simulation time: 2 hr 34 min 9 sec) 
Heartbeat CPU 0 instructions: 68000000 cycles: 152450041 heartbeat IPC: 0.285391 cumulative IPC: 0.391124 (Simulation time: 2 hr 37 min 22 sec) 
Heartbeat CPU 0 instructions: 69000000 cycles: 154902927 heartbeat IPC: 0.407683 cumulative IPC: 0.391394 (Simulation time: 2 hr 40 min 4 sec) 
Heartbeat CPU 0 instructions: 70000003 cycles: 157370836 heartbeat IPC: 0.405203 cumulative IPC: 0.391616 (Simulation time: 2 hr 42 min 54 sec) 
Heartbeat CPU 0 instructions: 71000000 cycles: 159900594 heartbeat IPC: 0.395294 cumulative IPC: 0.391676 (Simulation time: 2 hr 46 min 38 sec) 
Heartbeat CPU 0 instructions: 72000000 cycles: 162706323 heartbeat IPC: 0.356414 cumulative IPC: 0.391052 (Simulation time: 2 hr 49 min 50 sec) 
Heartbeat CPU 0 instructions: 73000002 cycles: 165711062 heartbeat IPC: 0.332808 cumulative IPC: 0.389969 (Simulation time: 2 hr 53 min 47 sec) 
Heartbeat CPU 0 instructions: 74000000 cycles: 167746616 heartbeat IPC: 0.491266 cumulative IPC: 0.391229 (Simulation time: 2 hr 56 min 25 sec) 
Heartbeat CPU 0 instructions: 75000002 cycles: 169095828 heartbeat IPC: 0.741175 cumulative IPC: 0.394092 (Simulation time: 2 hr 59 min 1 sec) 
Heartbeat CPU 0 instructions: 76000000 cycles: 172310365 heartbeat IPC: 0.311086 cumulative IPC: 0.392505 (Simulation time: 3 hr 2 min 58 sec) 
Heartbeat CPU 0 instructions: 77000000 cycles: 174772105 heartbeat IPC: 0.406217 cumulative IPC: 0.392703 (Simulation time: 3 hr 5 min 58 sec) 
Heartbeat CPU 0 instructions: 78000003 cycles: 177388256 heartbeat IPC: 0.382242 cumulative IPC: 0.392545 (Simulation time: 3 hr 8 min 55 sec) 
Heartbeat CPU 0 instructions: 79000001 cycles: 180439289 heartbeat IPC: 0.327757 cumulative IPC: 0.391423 (Simulation time: 3 hr 13 min 25 sec) 
Heartbeat CPU 0 instructions: 80000000 cycles: 182931307 heartbeat IPC: 0.401281 cumulative IPC: 0.391561 (Simulation time: 3 hr 17 min 3 sec) 
Heartbeat CPU 0 instructions: 81000003 cycles: 185789493 heartbeat IPC: 0.349873 cumulative IPC: 0.390905 (Simulation time: 3 hr 21 min 38 sec) 
Heartbeat CPU 0 instructions: 82000000 cycles: 187520993 heartbeat IPC: 0.577532 cumulative IPC: 0.392667 (Simulation time: 3 hr 24 min 35 sec) 
Heartbeat CPU 0 instructions: 83000001 cycles: 188843932 heartbeat IPC: 0.755894 cumulative IPC: 0.395269 (Simulation time: 3 hr 27 min 37 sec) 
Heartbeat CPU 0 instructions: 84000000 cycles: 191876665 heartbeat IPC: 0.329735 cumulative IPC: 0.39421 (Simulation time: 3 hr 31 min 41 sec) 
Heartbeat CPU 0 instructions: 85000002 cycles: 194306890 heartbeat IPC: 0.411485 cumulative IPC: 0.394431 (Simulation time: 3 hr 34 min 40 sec) 
Heartbeat CPU 0 instructions: 86000000 cycles: 196974591 heartbeat IPC: 0.374854 cumulative IPC: 0.39416 (Simulation time: 3 hr 38 min 5 sec) 
Heartbeat CPU 0 instructions: 87000000 cycles: 199754624 heartbeat IPC: 0.359708 cumulative IPC: 0.393671 (Simulation time: 3 hr 42 min 31 sec) 
Heartbeat CPU 0 instructions: 88000000 cycles: 201888686 heartbeat IPC: 0.46859 cumulative IPC: 0.394479 (Simulation time: 3 hr 45 min 47 sec) 
Heartbeat CPU 0 instructions: 89000001 cycles: 205099053 heartbeat IPC: 0.311491 cumulative IPC: 0.393153 (Simulation time: 3 hr 49 min 47 sec) 
Heartbeat CPU 0 instructions: 90000002 cycles: 206439181 heartbeat IPC: 0.746198 cumulative IPC: 0.395492 (Simulation time: 3 hr 52 min 8 sec) 
Heartbeat CPU 0 instructions: 91000000 cycles: 207835761 heartbeat IPC: 0.716033 cumulative IPC: 0.39769 (Simulation time: 3 hr 54 min 48 sec) 
Heartbeat CPU 0 instructions: 92000000 cycles: 210810493 heartbeat IPC: 0.336165 cumulative IPC: 0.396804 (Simulation time: 3 hr 58 min 31 sec) 
Heartbeat CPU 0 instructions: 93000000 cycles: 213453410 heartbeat IPC: 0.37837 cumulative IPC: 0.396572 (Simulation time: 4 hr 1 min 17 sec) 
Heartbeat CPU 0 instructions: 94000001 cycles: 216027303 heartbeat IPC: 0.388517 cumulative IPC: 0.396474 (Simulation time: 4 hr 3 min 57 sec) 
Heartbeat CPU 0 instructions: 95000003 cycles: 218963636 heartbeat IPC: 0.340562 cumulative IPC: 0.39571 (Simulation time: 4 hr 8 min 0 sec) 
Heartbeat CPU 0 instructions: 96000000 cycles: 220870312 heartbeat IPC: 0.524471 cumulative IPC: 0.396842 (Simulation time: 4 hr 11 min 20 sec) 
Heartbeat CPU 0 instructions: 97000003 cycles: 223957235 heartbeat IPC: 0.323948 cumulative IPC: 0.395819 (Simulation time: 4 hr 14 min 50 sec) 
Heartbeat CPU 0 instructions: 98000003 cycles: 225291127 heartbeat IPC: 0.749686 cumulative IPC: 0.397953 (Simulation time: 4 hr 17 min 16 sec) 
Heartbeat CPU 0 instructions: 99000000 cycles: 227535584 heartbeat IPC: 0.445541 cumulative IPC: 0.398431 (Simulation time: 4 hr 20 min 5 sec) 
Heartbeat CPU 0 instructions: 100000000 cycles: 230059708 heartbeat IPC: 0.396177 cumulative IPC: 0.398406 (Simulation time: 4 hr 23 min 6 sec) 
Heartbeat CPU 0 instructions: 101000001 cycles: 232645252 heartbeat IPC: 0.386766 cumulative IPC: 0.398274 (Simulation time: 4 hr 25 min 32 sec) 
Heartbeat CPU 0 instructions: 102000002 cycles: 235352578 heartbeat IPC: 0.369369 cumulative IPC: 0.397936 (Simulation time: 4 hr 28 min 15 sec) 
Heartbeat CPU 0 instructions: 103000002 cycles: 238185212 heartbeat IPC: 0.353028 cumulative IPC: 0.397392 (Simulation time: 4 hr 31 min 19 sec) 
Heartbeat CPU 0 instructions: 104000000 cycles: 240324953 heartbeat IPC: 0.467345 cumulative IPC: 0.398026 (Simulation time: 4 hr 34 min 3 sec) 
Heartbeat CPU 0 instructions: 105000000 cycles: 242711635 heartbeat IPC: 0.418992 cumulative IPC: 0.398236 (Simulation time: 4 hr 36 min 6 sec) 
Heartbeat CPU 0 instructions: 106000001 cycles: 244037173 heartbeat IPC: 0.754411 cumulative IPC: 0.400204 (Simulation time: 4 hr 37 min 33 sec) 
Heartbeat CPU 0 instructions: 107000001 cycles: 246842057 heartbeat IPC: 0.356521 cumulative IPC: 0.399699 (Simulation time: 4 hr 39 min 46 sec) 
Heartbeat CPU 0 instructions: 108000000 cycles: 249060805 heartbeat IPC: 0.450704 cumulative IPC: 0.400161 (Simulation time: 4 hr 41 min 15 sec) 
Heartbeat CPU 0 instructions: 109000003 cycles: 251689225 heartbeat IPC: 0.380458 cumulative IPC: 0.399952 (Simulation time: 4 hr 42 min 46 sec) 
Heartbeat CPU 0 instructions: 110000001 cycles: 254544834 heartbeat IPC: 0.350187 cumulative IPC: 0.399385 (Simulation time: 4 hr 44 min 35 sec) 
Finished CPU 0 instructions: 100000003 cycles: 250385232 cummulative IPC: 0.399385 (Simulation time: 4 hr 44 min 35 sec) 

ChampSim completed all CPUs

Region of Interest Statistics

CPU 0 cummulative IPC: 0.399385 instructions: 100000003 cycles: 250385232
LLC TOTAL     ACCESS:    6604252  HIT:    2838388  MISS:    3765864
LLC LOAD      ACCESS:    1697895  HIT:     757293  MISS:     940602
LLC RFO       ACCESS:     658504  HIT:     276162  MISS:     382342
LLC PREFETCH  ACCESS:    2687200  HIT:     894722  MISS:    1792478
LLC WRITEBACK ACCESS:    1560653  HIT:     910211  MISS:     650442
