
*** ChampSim Multicore Out-of-Order Simulator ***

Warmup Instructions: 10000000
Simulation Instructions: 100000000
Configuration: 2
Number of CPUs: 1
LLC sets: 2048
LLC ways: 16
Off-chip DRAM Channels: 1 Width: 64-bit Data Rate: 1600 MT/s

CPU 0 runs /datasets/cs240c-wi22-a00-public/data/Assignment2-gz/calculix_2655B.trace.gz
CPU 0 L1D next line prefetcher
CPU 0 L2C IP-based stride prefetcher
config 2, num_core 1, llc_sets 2048
Heartbeat CPU 0 instructions: 1000003 cycles: 392363 heartbeat IPC: 2.54867 cumulative IPC: 2.54867 (Simulation time: 0 hr 1 min 30 sec) 
Heartbeat CPU 0 instructions: 2000001 cycles: 785087 heartbeat IPC: 2.54631 cumulative IPC: 2.54749 (Simulation time: 0 hr 3 min 0 sec) 
Heartbeat CPU 0 instructions: 3000002 cycles: 1177606 heartbeat IPC: 2.54765 cumulative IPC: 2.54754 (Simulation time: 0 hr 4 min 26 sec) 
Heartbeat CPU 0 instructions: 4000000 cycles: 1569370 heartbeat IPC: 2.55255 cumulative IPC: 2.54879 (Simulation time: 0 hr 5 min 53 sec) 
Heartbeat CPU 0 instructions: 5000003 cycles: 1961549 heartbeat IPC: 2.54986 cumulative IPC: 2.54901 (Simulation time: 0 hr 7 min 36 sec) 
Heartbeat CPU 0 instructions: 6000003 cycles: 2353695 heartbeat IPC: 2.55007 cumulative IPC: 2.54918 (Simulation time: 0 hr 9 min 15 sec) 
Heartbeat CPU 0 instructions: 7000002 cycles: 2745868 heartbeat IPC: 2.54989 cumulative IPC: 2.54929 (Simulation time: 0 hr 10 min 51 sec) 
Heartbeat CPU 0 instructions: 8000000 cycles: 3137860 heartbeat IPC: 2.55107 cumulative IPC: 2.54951 (Simulation time: 0 hr 12 min 34 sec) 
Heartbeat CPU 0 instructions: 9000001 cycles: 3530068 heartbeat IPC: 2.54967 cumulative IPC: 2.54953 (Simulation time: 0 hr 14 min 8 sec) 
Heartbeat CPU 0 instructions: 10000000 cycles: 3921569 heartbeat IPC: 2.55427 cumulative IPC: 2.55 (Simulation time: 0 hr 15 min 48 sec) 

Warmup complete CPU 0 instructions: 10000004 cycles: 3921570 (Simulation time: 0 hr 15 min 48 sec) 

Heartbeat CPU 0 instructions: 11000001 cycles: 4416627 heartbeat IPC: 2.01997 cumulative IPC: 2.01996 (Simulation time: 0 hr 17 min 49 sec) 
Heartbeat CPU 0 instructions: 12000000 cycles: 4874994 heartbeat IPC: 2.18166 cumulative IPC: 2.0977 (Simulation time: 0 hr 19 min 55 sec) 
Heartbeat CPU 0 instructions: 13000000 cycles: 5326695 heartbeat IPC: 2.21385 cumulative IPC: 2.13504 (Simulation time: 0 hr 22 min 21 sec) 
Heartbeat CPU 0 instructions: 14000002 cycles: 5772541 heartbeat IPC: 2.24293 cumulative IPC: 2.16103 (Simulation time: 0 hr 24 min 43 sec) 
Heartbeat CPU 0 instructions: 15000001 cycles: 6217742 heartbeat IPC: 2.24617 cumulative IPC: 2.17754 (Simulation time: 0 hr 26 min 46 sec) 
Heartbeat CPU 0 instructions: 16000000 cycles: 6868927 heartbeat IPC: 1.53566 cumulative IPC: 2.03572 (Simulation time: 0 hr 28 min 54 sec) 
Heartbeat CPU 0 instructions: 17000000 cycles: 7429840 heartbeat IPC: 1.78281 cumulative IPC: 1.99528 (Simulation time: 0 hr 31 min 0 sec) 
Heartbeat CPU 0 instructions: 18000000 cycles: 7871597 heartbeat IPC: 2.26369 cumulative IPC: 2.0253 (Simulation time: 0 hr 32 min 59 sec) 
Heartbeat CPU 0 instructions: 19000000 cycles: 8301899 heartbeat IPC: 2.32395 cumulative IPC: 2.05464 (Simulation time: 0 hr 34 min 58 sec) 
Heartbeat CPU 0 instructions: 20000000 cycles: 8729079 heartbeat IPC: 2.34093 cumulative IPC: 2.08008 (Simulation time: 0 hr 36 min 50 sec) 
Heartbeat CPU 0 instructions: 21000002 cycles: 9157725 heartbeat IPC: 2.33293 cumulative IPC: 2.10078 (Simulation time: 0 hr 38 min 45 sec) 
Heartbeat CPU 0 instructions: 22000001 cycles: 9822196 heartbeat IPC: 1.50496 cumulative IPC: 2.03368 (Simulation time: 0 hr 40 min 38 sec) 
Heartbeat CPU 0 instructions: 23000000 cycles: 10413944 heartbeat IPC: 1.68991 cumulative IPC: 2.00235 (Simulation time: 0 hr 42 min 33 sec) 
Heartbeat CPU 0 instructions: 24000000 cycles: 10978489 heartbeat IPC: 1.77134 cumulative IPC: 1.98387 (Simulation time: 0 hr 44 min 18 sec) 
Heartbeat CPU 0 instructions: 25000003 cycles: 11423769 heartbeat IPC: 2.24578 cumulative IPC: 1.99941 (Simulation time: 0 hr 45 min 57 sec) 
Heartbeat CPU 0 instructions: 26000003 cycles: 11849214 heartbeat IPC: 2.35048 cumulative IPC: 2.01825 (Simulation time: 0 hr 47 min 56 sec) 
Heartbeat CPU 0 instructions: 27000000 cycles: 12302795 heartbeat IPC: 2.20467 cumulative IPC: 2.02834 (Simulation time: 0 hr 49 min 44 sec) 
Heartbeat CPU 0 instructions: 28000000 cycles: 12954449 heartbeat IPC: 1.53456 cumulative IPC: 1.99272 (Simulation time: 0 hr 51 min 49 sec) 
Heartbeat CPU 0 instructions: 29000003 cycles: 13564365 heartbeat IPC: 1.63958 cumulative IPC: 1.97038 (Simulation time: 0 hr 53 min 41 sec) 
Heartbeat CPU 0 instructions: 30000001 cycles: 14184613 heartbeat IPC: 1.61226 cumulative IPC: 1.94874 (Simulation time: 0 hr 55 min 33 sec) 
Heartbeat CPU 0 instructions: 31000000 cycles: 14798644 heartbeat IPC: 1.62858 cumulative IPC: 1.93067 (Simulation time: 0 hr 57 min 20 sec) 
Heartbeat CPU 0 instructions: 32000000 cycles: 15397103 heartbeat IPC: 1.67096 cumulative IPC: 1.91712 (Simulation time: 0 hr 59 min 20 sec) 
Heartbeat CPU 0 instructions: 33000003 cycles: 16037757 heartbeat IPC: 1.56091 cumulative IPC: 1.89829 (Simulation time: 1 hr 1 min 10 sec) 
Heartbeat CPU 0 instructions: 34000002 cycles: 16726261 heartbeat IPC: 1.45242 cumulative IPC: 1.87431 (Simulation time: 1 hr 3 min 19 sec) 
Heartbeat CPU 0 instructions: 35000001 cycles: 17383536 heartbeat IPC: 1.52143 cumulative IPC: 1.85708 (Simulation time: 1 hr 5 min 6 sec) 
Heartbeat CPU 0 instructions: 36000000 cycles: 18033477 heartbeat IPC: 1.5386 cumulative IPC: 1.84242 (Simulation time: 1 hr 6 min 44 sec) 
Heartbeat CPU 0 instructions: 37000002 cycles: 18685900 heartbeat IPC: 1.53275 cumulative IPC: 1.82873 (Simulation time: 1 hr 8 min 31 sec) 
Heartbeat CPU 0 instructions: 38000002 cycles: 19322092 heartbeat IPC: 1.57185 cumulative IPC: 1.81812 (Simulation time: 1 hr 10 min 20 sec) 
Heartbeat CPU 0 instructions: 39000002 cycles: 20039181 heartbeat IPC: 1.39453 cumulative IPC: 1.79927 (Simulation time: 1 hr 12 min 13 sec) 
Heartbeat CPU 0 instructions: 40000000 cycles: 20541595 heartbeat IPC: 1.99039 cumulative IPC: 1.80505 (Simulation time: 1 hr 14 min 6 sec) 
Heartbeat CPU 0 instructions: 41000003 cycles: 21027611 heartbeat IPC: 2.05755 cumulative IPC: 1.81223 (Simulation time: 1 hr 15 min 50 sec) 
Heartbeat CPU 0 instructions: 42000001 cycles: 21546532 heartbeat IPC: 1.92707 cumulative IPC: 1.81561 (Simulation time: 1 hr 17 min 29 sec) 
Heartbeat CPU 0 instructions: 43000001 cycles: 22074711 heartbeat IPC: 1.8933 cumulative IPC: 1.81787 (Simulation time: 1 hr 19 min 20 sec) 
Heartbeat CPU 0 instructions: 44000000 cycles: 22772958 heartbeat IPC: 1.43216 cumulative IPC: 1.80358 (Simulation time: 1 hr 21 min 9 sec) 
Heartbeat CPU 0 instructions: 45000002 cycles: 23236969 heartbeat IPC: 2.15513 cumulative IPC: 1.81203 (Simulation time: 1 hr 22 min 52 sec) 
Heartbeat CPU 0 instructions: 46000003 cycles: 23750957 heartbeat IPC: 1.94557 cumulative IPC: 1.81549 (Simulation time: 1 hr 24 min 42 sec) 
Heartbeat CPU 0 instructions: 47000000 cycles: 24257511 heartbeat IPC: 1.97412 cumulative IPC: 1.81944 (Simulation time: 1 hr 26 min 19 sec) 
Heartbeat CPU 0 instructions: 48000000 cycles: 24801171 heartbeat IPC: 1.83938 cumulative IPC: 1.81996 (Simulation time: 1 hr 28 min 8 sec) 
Heartbeat CPU 0 instructions: 49000000 cycles: 25247726 heartbeat IPC: 2.23937 cumulative IPC: 1.82874 (Simulation time: 1 hr 29 min 35 sec) 
Heartbeat CPU 0 instructions: 50000002 cycles: 25730176 heartbeat IPC: 2.07276 cumulative IPC: 1.83414 (Simulation time: 1 hr 31 min 12 sec) 
Heartbeat CPU 0 instructions: 51000001 cycles: 26208740 heartbeat IPC: 2.08958 cumulative IPC: 1.83962 (Simulation time: 1 hr 33 min 4 sec) 
Heartbeat CPU 0 instructions: 52000000 cycles: 26644368 heartbeat IPC: 2.29553 cumulative IPC: 1.84836 (Simulation time: 1 hr 34 min 38 sec) 
Heartbeat CPU 0 instructions: 53000002 cycles: 27175392 heartbeat IPC: 1.88316 cumulative IPC: 1.84916 (Simulation time: 1 hr 36 min 24 sec) 
Heartbeat CPU 0 instructions: 54000002 cycles: 27970525 heartbeat IPC: 1.25765 cumulative IPC: 1.8296 (Simulation time: 1 hr 38 min 25 sec) 
Heartbeat CPU 0 instructions: 55000002 cycles: 28502831 heartbeat IPC: 1.87862 cumulative IPC: 1.83066 (Simulation time: 1 hr 40 min 9 sec) 
Heartbeat CPU 0 instructions: 56000000 cycles: 28986273 heartbeat IPC: 2.0685 cumulative IPC: 1.83525 (Simulation time: 1 hr 42 min 2 sec) 
Heartbeat CPU 0 instructions: 57000000 cycles: 29525294 heartbeat IPC: 1.85522 cumulative IPC: 1.83567 (Simulation time: 1 hr 44 min 13 sec) 
Heartbeat CPU 0 instructions: 58000003 cycles: 29976415 heartbeat IPC: 2.21671 cumulative IPC: 1.84227 (Simulation time: 1 hr 46 min 7 sec) 
Heartbeat CPU 0 instructions: 59000001 cycles: 30510149 heartbeat IPC: 1.87359 cumulative IPC: 1.8429 (Simulation time: 1 hr 48 min 0 sec) 
Heartbeat CPU 0 instructions: 60000000 cycles: 30992541 heartbeat IPC: 2.073 cumulative IPC: 1.847 (Simulation time: 1 hr 49 min 47 sec) 
Heartbeat CPU 0 instructions: 61000003 cycles: 31507667 heartbeat IPC: 1.94128 cumulative IPC: 1.84876 (Simulation time: 1 hr 51 min 40 sec) 
Heartbeat CPU 0 instructions: 62000003 cycles: 32031917 heartbeat IPC: 1.90749 cumulative IPC: 1.84985 (Simulation time: 1 hr 54 min 2 sec) 
Heartbeat CPU 0 instructions: 63000003 cycles: 32717964 heartbeat IPC: 1.45763 cumulative IPC: 1.84051 (Simulation time: 1 hr 56 min 8 sec) 
Heartbeat CPU 0 instructions: 64000000 cycles: 33210146 heartbeat IPC: 2.03176 cumulative IPC: 1.84372 (Simulation time: 1 hr 58 min 4 sec) 
Heartbeat CPU 0 instructions: 65000001 cycles: 33741383 heartbeat IPC: 1.8824 cumulative IPC: 1.84441 (Simulation time: 2 hr 0 min 23 sec) 
Heartbeat CPU 0 instructions: 66000001 cycles: 34401489 heartbeat IPC: 1.51491 cumulative IPC: 1.83728 (Simulation time: 2 hr 2 min 50 sec) 
Heartbeat CPU 0 instructions: 67000003 cycles: 34997783 heartbeat IPC: 1.67703 cumulative IPC: 1.8342 (Simulation time: 2 hr 5 min 27 sec) 
Heartbeat CPU 0 instructions: 68000000 cycles: 35575860 heartbeat IPC: 1.72987 cumulative IPC: 1.83229 (Simulation time: 2 hr 7 min 57 sec) 
Heartbeat CPU 0 instructions: 69000001 cycles: 36146525 heartbeat IPC: 1.75234 cumulative IPC: 1.83088 (Simulation time: 2 hr 10 min 35 sec) 
Heartbeat CPU 0 instructions: 70000002 cycles: 36725144 heartbeat IPC: 1.72825 cumulative IPC: 1.82907 (Simulation time: 2 hr 13 min 17 sec) 
Heartbeat CPU 0 instructions: 71000003 cycles: 37296189 heartbeat IPC: 1.75118 cumulative IPC: 1.82774 (Simulation time: 2 hr 15 min 59 sec) 
Heartbeat CPU 0 instructions: 72000000 cycles: 37873474 heartbeat IPC: 1.73224 cumulative IPC: 1.82611 (Simulation time: 2 hr 18 min 43 sec) 
Heartbeat CPU 0 instructions: 73000000 cycles: 38453265 heartbeat IPC: 1.72476 cumulative IPC: 1.82441 (Simulation time: 2 hr 21 min 24 sec) 
Heartbeat CPU 0 instructions: 74000000 cycles: 39021645 heartbeat IPC: 1.75939 cumulative IPC: 1.82336 (Simulation time: 2 hr 24 min 13 sec) 
Heartbeat CPU 0 instructions: 75000000 cycles: 39657302 heartbeat IPC: 1.57318 cumulative IPC: 1.81891 (Simulation time: 2 hr 27 min 19 sec) 
Heartbeat CPU 0 instructions: 76000000 cycles: 40250481 heartbeat IPC: 1.68583 cumulative IPC: 1.81673 (Simulation time: 2 hr 30 min 15 sec) 
Heartbeat CPU 0 instructions: 77000003 cycles: 40843425 heartbeat IPC: 1.6865 cumulative IPC: 1.81464 (Simulation time: 2 hr 33 min 8 sec) 
Heartbeat CPU 0 instructions: 78000002 cycles: 41431836 heartbeat IPC: 1.69949 cumulative IPC: 1.81284 (Simulation time: 2 hr 35 min 54 sec) 
Heartbeat CPU 0 instructions: 79000001 cycles: 42014784 heartbeat IPC: 1.71542 cumulative IPC: 1.81135 (Simulation time: 2 hr 38 min 34 sec) 
Heartbeat CPU 0 instructions: 80000000 cycles: 42604436 heartbeat IPC: 1.69591 cumulative IPC: 1.80959 (Simulation time: 2 hr 41 min 25 sec) 
Heartbeat CPU 0 instructions: 81000001 cycles: 43190775 heartbeat IPC: 1.7055 cumulative IPC: 1.80803 (Simulation time: 2 hr 44 min 34 sec) 
Heartbeat CPU 0 instructions: 82000003 cycles: 43769179 heartbeat IPC: 1.7289 cumulative IPC: 1.80688 (Simulation time: 2 hr 47 min 16 sec) 
Heartbeat CPU 0 instructions: 83000003 cycles: 44348547 heartbeat IPC: 1.72602 cumulative IPC: 1.80572 (Simulation time: 2 hr 50 min 13 sec) 
Heartbeat CPU 0 instructions: 84000000 cycles: 44964083 heartbeat IPC: 1.6246 cumulative IPC: 1.80301 (Simulation time: 2 hr 52 min 50 sec) 
Heartbeat CPU 0 instructions: 85000002 cycles: 45514140 heartbeat IPC: 1.818 cumulative IPC: 1.80321 (Simulation time: 2 hr 55 min 42 sec) 
Heartbeat CPU 0 instructions: 86000001 cycles: 46234562 heartbeat IPC: 1.38807 cumulative IPC: 1.79614 (Simulation time: 2 hr 58 min 49 sec) 
Heartbeat CPU 0 instructions: 87000003 cycles: 46817743 heartbeat IPC: 1.71474 cumulative IPC: 1.79503 (Simulation time: 3 hr 1 min 40 sec) 
Heartbeat CPU 0 instructions: 88000000 cycles: 47284411 heartbeat IPC: 2.14284 cumulative IPC: 1.79878 (Simulation time: 3 hr 4 min 32 sec) 
Heartbeat CPU 0 instructions: 89000000 cycles: 47747767 heartbeat IPC: 2.15817 cumulative IPC: 1.80257 (Simulation time: 3 hr 7 min 11 sec) 
Heartbeat CPU 0 instructions: 90000001 cycles: 48214943 heartbeat IPC: 2.14052 cumulative IPC: 1.80614 (Simulation time: 3 hr 9 min 42 sec) 
Heartbeat CPU 0 instructions: 91000002 cycles: 48762497 heartbeat IPC: 1.82631 cumulative IPC: 1.80639 (Simulation time: 3 hr 12 min 27 sec) 
Heartbeat CPU 0 instructions: 92000000 cycles: 49291526 heartbeat IPC: 1.89025 cumulative IPC: 1.80736 (Simulation time: 3 hr 15 min 20 sec) 
Heartbeat CPU 0 instructions: 93000000 cycles: 49822377 heartbeat IPC: 1.88377 cumulative IPC: 1.80825 (Simulation time: 3 hr 18 min 11 sec) 
Heartbeat CPU 0 instructions: 94000003 cycles: 50337579 heartbeat IPC: 1.94099 cumulative IPC: 1.80972 (Simulation time: 3 hr 21 min 7 sec) 
Heartbeat CPU 0 instructions: 95000003 cycles: 50886626 heartbeat IPC: 1.82134 cumulative IPC: 1.80986 (Simulation time: 3 hr 24 min 8 sec) 
Heartbeat CPU 0 instructions: 96000000 cycles: 51365407 heartbeat IPC: 2.08863 cumulative IPC: 1.81267 (Simulation time: 3 hr 26 min 57 sec) 
Heartbeat CPU 0 instructions: 97000002 cycles: 51857529 heartbeat IPC: 2.03202 cumulative IPC: 1.81492 (Simulation time: 3 hr 29 min 45 sec) 
Heartbeat CPU 0 instructions: 98000001 cycles: 52330928 heartbeat IPC: 2.11238 cumulative IPC: 1.81783 (Simulation time: 3 hr 32 min 37 sec) 
Heartbeat CPU 0 instructions: 99000001 cycles: 52876693 heartbeat IPC: 1.83229 cumulative IPC: 1.81799 (Simulation time: 3 hr 35 min 37 sec) 
Heartbeat CPU 0 instructions: 100000000 cycles: 53365606 heartbeat IPC: 2.04535 cumulative IPC: 1.82024 (Simulation time: 3 hr 38 min 24 sec) 
Heartbeat CPU 0 instructions: 101000001 cycles: 53852023 heartbeat IPC: 2.05585 cumulative IPC: 1.82253 (Simulation time: 3 hr 41 min 0 sec) 
Heartbeat CPU 0 instructions: 102000003 cycles: 54323846 heartbeat IPC: 2.11944 cumulative IPC: 1.82531 (Simulation time: 3 hr 43 min 33 sec) 
Heartbeat CPU 0 instructions: 103000003 cycles: 54857037 heartbeat IPC: 1.8755 cumulative IPC: 1.82584 (Simulation time: 3 hr 46 min 18 sec) 
Heartbeat CPU 0 instructions: 104000000 cycles: 55413300 heartbeat IPC: 1.79771 cumulative IPC: 1.82554 (Simulation time: 3 hr 48 min 57 sec) 
Heartbeat CPU 0 instructions: 105000001 cycles: 55839590 heartbeat IPC: 2.34582 cumulative IPC: 1.82981 (Simulation time: 3 hr 51 min 34 sec) 
Heartbeat CPU 0 instructions: 106000002 cycles: 56286469 heartbeat IPC: 2.23774 cumulative IPC: 1.83329 (Simulation time: 3 hr 54 min 10 sec) 
Heartbeat CPU 0 instructions: 107000001 cycles: 56739093 heartbeat IPC: 2.20934 cumulative IPC: 1.83651 (Simulation time: 3 hr 56 min 38 sec) 
Heartbeat CPU 0 instructions: 108000000 cycles: 57157910 heartbeat IPC: 2.38768 cumulative IPC: 1.84085 (Simulation time: 3 hr 59 min 5 sec) 
Heartbeat CPU 0 instructions: 109000000 cycles: 57634513 heartbeat IPC: 2.09818 cumulative IPC: 1.84313 (Simulation time: 4 hr 1 min 34 sec) 
Heartbeat CPU 0 instructions: 110000000 cycles: 58053224 heartbeat IPC: 2.38828 cumulative IPC: 1.84735 (Simulation time: 4 hr 4 min 5 sec) 
Finished CPU 0 instructions: 100000000 cycles: 54131655 cummulative IPC: 1.84735 (Simulation time: 4 hr 4 min 5 sec) 

ChampSim completed all CPUs

Region of Interest Statistics

CPU 0 cummulative IPC: 1.84735 instructions: 100000000 cycles: 54131655
LLC TOTAL     ACCESS:     865121  HIT:     376968  MISS:     488153
LLC LOAD      ACCESS:     110524  HIT:      91064  MISS:      19460
LLC RFO       ACCESS:        417  HIT:        415  MISS:          2
LLC PREFETCH  ACCESS:     655869  HIT:     207087  MISS:     448782
LLC WRITEBACK ACCESS:      98311  HIT:      78402  MISS:      19909
