
*** ChampSim Multicore Out-of-Order Simulator ***

Warmup Instructions: 10000000
Simulation Instructions: 100000000
Configuration: 2
Number of CPUs: 1
LLC sets: 2048
LLC ways: 16
Off-chip DRAM Channels: 1 Width: 64-bit Data Rate: 1600 MT/s

CPU 0 runs /datasets/cs240c-wi22-a00-public/data/Assignment2-gz/soplex_205B.trace.gz
CPU 0 L1D next line prefetcher
CPU 0 L2C IP-based stride prefetcher
config 2, num_core 1, llc_sets 2048
Heartbeat CPU 0 instructions: 1000000 cycles: 395620 heartbeat IPC: 2.52768 cumulative IPC: 2.52768 (Simulation time: 0 hr 2 min 5 sec) 
Heartbeat CPU 0 instructions: 2000002 cycles: 924553 heartbeat IPC: 1.8906 cumulative IPC: 2.16321 (Simulation time: 0 hr 4 min 16 sec) 
Heartbeat CPU 0 instructions: 3000000 cycles: 1396940 heartbeat IPC: 2.1169 cumulative IPC: 2.14755 (Simulation time: 0 hr 6 min 57 sec) 
Heartbeat CPU 0 instructions: 4000000 cycles: 1758318 heartbeat IPC: 2.76719 cumulative IPC: 2.2749 (Simulation time: 0 hr 8 min 53 sec) 
Heartbeat CPU 0 instructions: 5000003 cycles: 2201817 heartbeat IPC: 2.2548 cumulative IPC: 2.27085 (Simulation time: 0 hr 11 min 10 sec) 
Heartbeat CPU 0 instructions: 6000003 cycles: 2621958 heartbeat IPC: 2.38015 cumulative IPC: 2.28837 (Simulation time: 0 hr 13 min 26 sec) 
Heartbeat CPU 0 instructions: 7000000 cycles: 3006393 heartbeat IPC: 2.60121 cumulative IPC: 2.32837 (Simulation time: 0 hr 15 min 12 sec) 
Heartbeat CPU 0 instructions: 8000000 cycles: 3401619 heartbeat IPC: 2.5302 cumulative IPC: 2.35182 (Simulation time: 0 hr 17 min 1 sec) 
Heartbeat CPU 0 instructions: 9000003 cycles: 3926903 heartbeat IPC: 1.90374 cumulative IPC: 2.29188 (Simulation time: 0 hr 19 min 5 sec) 
Heartbeat CPU 0 instructions: 10000000 cycles: 4412237 heartbeat IPC: 2.06043 cumulative IPC: 2.26642 (Simulation time: 0 hr 21 min 24 sec) 

Warmup complete CPU 0 instructions: 10000004 cycles: 4412239 (Simulation time: 0 hr 21 min 24 sec) 

Heartbeat CPU 0 instructions: 11000001 cycles: 7037359 heartbeat IPC: 0.380935 cumulative IPC: 0.380934 (Simulation time: 0 hr 23 min 52 sec) 
Heartbeat CPU 0 instructions: 12000000 cycles: 9236309 heartbeat IPC: 0.454762 cumulative IPC: 0.414587 (Simulation time: 0 hr 26 min 26 sec) 
Heartbeat CPU 0 instructions: 13000000 cycles: 12897038 heartbeat IPC: 0.27317 cumulative IPC: 0.353573 (Simulation time: 0 hr 29 min 8 sec) 
Heartbeat CPU 0 instructions: 14000003 cycles: 14220602 heartbeat IPC: 0.755538 cumulative IPC: 0.407815 (Simulation time: 0 hr 30 min 46 sec) 
Heartbeat CPU 0 instructions: 15000000 cycles: 15960625 heartbeat IPC: 0.574703 cumulative IPC: 0.432961 (Simulation time: 0 hr 32 min 38 sec) 
Heartbeat CPU 0 instructions: 16000000 cycles: 19119886 heartbeat IPC: 0.31653 cumulative IPC: 0.407951 (Simulation time: 0 hr 35 min 28 sec) 
Heartbeat CPU 0 instructions: 17000001 cycles: 22838029 heartbeat IPC: 0.268952 cumulative IPC: 0.379902 (Simulation time: 0 hr 38 min 52 sec) 
Heartbeat CPU 0 instructions: 18000000 cycles: 29683390 heartbeat IPC: 0.146084 cumulative IPC: 0.316566 (Simulation time: 0 hr 41 min 49 sec) 
Heartbeat CPU 0 instructions: 19000003 cycles: 34435070 heartbeat IPC: 0.210453 cumulative IPC: 0.299772 (Simulation time: 0 hr 45 min 3 sec) 
Heartbeat CPU 0 instructions: 20000000 cycles: 36506776 heartbeat IPC: 0.482693 cumulative IPC: 0.311579 (Simulation time: 0 hr 48 min 12 sec) 
Heartbeat CPU 0 instructions: 21000001 cycles: 41511062 heartbeat IPC: 0.199829 cumulative IPC: 0.296505 (Simulation time: 0 hr 51 min 27 sec) 
Heartbeat CPU 0 instructions: 22000001 cycles: 46049397 heartbeat IPC: 0.220345 cumulative IPC: 0.288204 (Simulation time: 0 hr 54 min 20 sec) 
Heartbeat CPU 0 instructions: 23000002 cycles: 49412984 heartbeat IPC: 0.297302 cumulative IPC: 0.288884 (Simulation time: 0 hr 57 min 5 sec) 
Heartbeat CPU 0 instructions: 24000000 cycles: 53144413 heartbeat IPC: 0.267993 cumulative IPC: 0.287284 (Simulation time: 1 hr 0 min 8 sec) 
Heartbeat CPU 0 instructions: 25000000 cycles: 56914139 heartbeat IPC: 0.265271 cumulative IPC: 0.285704 (Simulation time: 1 hr 3 min 3 sec) 
Heartbeat CPU 0 instructions: 26000002 cycles: 60631873 heartbeat IPC: 0.268982 cumulative IPC: 0.284598 (Simulation time: 1 hr 6 min 0 sec) 
Heartbeat CPU 0 instructions: 27000000 cycles: 63205318 heartbeat IPC: 0.388583 cumulative IPC: 0.28915 (Simulation time: 1 hr 8 min 33 sec) 
Heartbeat CPU 0 instructions: 28000000 cycles: 66971665 heartbeat IPC: 0.265509 cumulative IPC: 0.287726 (Simulation time: 1 hr 11 min 12 sec) 
Heartbeat CPU 0 instructions: 29000000 cycles: 68981652 heartbeat IPC: 0.497516 cumulative IPC: 0.294257 (Simulation time: 1 hr 13 min 35 sec) 
Heartbeat CPU 0 instructions: 30000003 cycles: 69915078 heartbeat IPC: 1.07133 cumulative IPC: 0.30533 (Simulation time: 1 hr 15 min 38 sec) 
Heartbeat CPU 0 instructions: 31000003 cycles: 71331159 heartbeat IPC: 0.706174 cumulative IPC: 0.313813 (Simulation time: 1 hr 18 min 13 sec) 
Heartbeat CPU 0 instructions: 32000000 cycles: 74793952 heartbeat IPC: 0.288783 cumulative IPC: 0.312581 (Simulation time: 1 hr 21 min 37 sec) 
Heartbeat CPU 0 instructions: 33000000 cycles: 77872788 heartbeat IPC: 0.324798 cumulative IPC: 0.313093 (Simulation time: 1 hr 25 min 21 sec) 
Heartbeat CPU 0 instructions: 34000002 cycles: 79659711 heartbeat IPC: 0.559622 cumulative IPC: 0.318948 (Simulation time: 1 hr 28 min 33 sec) 
Heartbeat CPU 0 instructions: 35000003 cycles: 82445947 heartbeat IPC: 0.358907 cumulative IPC: 0.320374 (Simulation time: 1 hr 32 min 1 sec) 
Heartbeat CPU 0 instructions: 36000000 cycles: 85076263 heartbeat IPC: 0.380181 cumulative IPC: 0.322325 (Simulation time: 1 hr 35 min 28 sec) 
Heartbeat CPU 0 instructions: 37000000 cycles: 89408811 heartbeat IPC: 0.230811 cumulative IPC: 0.31766 (Simulation time: 1 hr 39 min 21 sec) 
Heartbeat CPU 0 instructions: 38000002 cycles: 90840617 heartbeat IPC: 0.69842 cumulative IPC: 0.323968 (Simulation time: 1 hr 41 min 52 sec) 
Heartbeat CPU 0 instructions: 39000003 cycles: 92908862 heartbeat IPC: 0.483502 cumulative IPC: 0.327696 (Simulation time: 1 hr 44 min 34 sec) 
Heartbeat CPU 0 instructions: 40000000 cycles: 96174376 heartbeat IPC: 0.30623 cumulative IPC: 0.326932 (Simulation time: 1 hr 48 min 2 sec) 
Heartbeat CPU 0 instructions: 41000000 cycles: 99508785 heartbeat IPC: 0.299903 cumulative IPC: 0.325984 (Simulation time: 1 hr 51 min 26 sec) 
Heartbeat CPU 0 instructions: 42000001 cycles: 101188151 heartbeat IPC: 0.595463 cumulative IPC: 0.330661 (Simulation time: 1 hr 54 min 34 sec) 
Heartbeat CPU 0 instructions: 43000001 cycles: 105022643 heartbeat IPC: 0.260791 cumulative IPC: 0.327998 (Simulation time: 1 hr 58 min 39 sec) 
Heartbeat CPU 0 instructions: 44000000 cycles: 107468374 heartbeat IPC: 0.408875 cumulative IPC: 0.329917 (Simulation time: 2 hr 1 min 27 sec) 
Heartbeat CPU 0 instructions: 45000001 cycles: 108802841 heartbeat IPC: 0.749364 cumulative IPC: 0.335279 (Simulation time: 2 hr 4 min 0 sec) 
Heartbeat CPU 0 instructions: 46000002 cycles: 111733133 heartbeat IPC: 0.341263 cumulative IPC: 0.335443 (Simulation time: 2 hr 6 min 53 sec) 
Heartbeat CPU 0 instructions: 47000001 cycles: 115135258 heartbeat IPC: 0.293934 cumulative IPC: 0.334167 (Simulation time: 2 hr 10 min 41 sec) 
Heartbeat CPU 0 instructions: 48000000 cycles: 117895715 heartbeat IPC: 0.362258 cumulative IPC: 0.33485 (Simulation time: 2 hr 13 min 48 sec) 
Heartbeat CPU 0 instructions: 49000001 cycles: 119857032 heartbeat IPC: 0.509862 cumulative IPC: 0.337824 (Simulation time: 2 hr 16 min 55 sec) 
Heartbeat CPU 0 instructions: 50000000 cycles: 123127272 heartbeat IPC: 0.305788 cumulative IPC: 0.336941 (Simulation time: 2 hr 20 min 27 sec) 
Heartbeat CPU 0 instructions: 51000003 cycles: 125585575 heartbeat IPC: 0.406786 cumulative IPC: 0.338358 (Simulation time: 2 hr 23 min 16 sec) 
Heartbeat CPU 0 instructions: 52000000 cycles: 126883642 heartbeat IPC: 0.770374 cumulative IPC: 0.342937 (Simulation time: 2 hr 26 min 1 sec) 
Heartbeat CPU 0 instructions: 53000001 cycles: 129690195 heartbeat IPC: 0.356309 cumulative IPC: 0.343237 (Simulation time: 2 hr 29 min 2 sec) 
Heartbeat CPU 0 instructions: 54000000 cycles: 133152329 heartbeat IPC: 0.288839 cumulative IPC: 0.341774 (Simulation time: 2 hr 32 min 37 sec) 
Heartbeat CPU 0 instructions: 55000001 cycles: 136090880 heartbeat IPC: 0.340304 cumulative IPC: 0.341741 (Simulation time: 2 hr 36 min 2 sec) 
Heartbeat CPU 0 instructions: 56000000 cycles: 137924040 heartbeat IPC: 0.545506 cumulative IPC: 0.344539 (Simulation time: 2 hr 39 min 0 sec) 
Heartbeat CPU 0 instructions: 57000000 cycles: 141299005 heartbeat IPC: 0.296299 cumulative IPC: 0.343349 (Simulation time: 2 hr 42 min 24 sec) 
Heartbeat CPU 0 instructions: 58000000 cycles: 143582774 heartbeat IPC: 0.437873 cumulative IPC: 0.344901 (Simulation time: 2 hr 45 min 0 sec) 
Heartbeat CPU 0 instructions: 59000001 cycles: 144880781 heartbeat IPC: 0.770413 cumulative IPC: 0.348833 (Simulation time: 2 hr 47 min 21 sec) 
Heartbeat CPU 0 instructions: 60000000 cycles: 147594812 heartbeat IPC: 0.368455 cumulative IPC: 0.349204 (Simulation time: 2 hr 50 min 36 sec) 
Heartbeat CPU 0 instructions: 61000003 cycles: 150872396 heartbeat IPC: 0.305104 cumulative IPC: 0.348218 (Simulation time: 2 hr 54 min 5 sec) 
Heartbeat CPU 0 instructions: 62000002 cycles: 154011098 heartbeat IPC: 0.318603 cumulative IPC: 0.347596 (Simulation time: 2 hr 57 min 22 sec) 
Heartbeat CPU 0 instructions: 63000001 cycles: 155699794 heartbeat IPC: 0.592172 cumulative IPC: 0.350326 (Simulation time: 3 hr 0 min 23 sec) 
Heartbeat CPU 0 instructions: 64000000 cycles: 159535658 heartbeat IPC: 0.260697 cumulative IPC: 0.34811 (Simulation time: 3 hr 4 min 5 sec) 
Heartbeat CPU 0 instructions: 65000001 cycles: 161471575 heartbeat IPC: 0.516552 cumulative IPC: 0.350186 (Simulation time: 3 hr 6 min 42 sec) 
Heartbeat CPU 0 instructions: 66000000 cycles: 162765292 heartbeat IPC: 0.772966 cumulative IPC: 0.35364 (Simulation time: 3 hr 9 min 14 sec) 
Heartbeat CPU 0 instructions: 67000003 cycles: 165585540 heartbeat IPC: 0.35458 cumulative IPC: 0.353657 (Simulation time: 3 hr 12 min 28 sec) 
Heartbeat CPU 0 instructions: 68000000 cycles: 169075761 heartbeat IPC: 0.286514 cumulative IPC: 0.352233 (Simulation time: 3 hr 16 min 4 sec) 
Heartbeat CPU 0 instructions: 69000001 cycles: 171599016 heartbeat IPC: 0.396314 cumulative IPC: 0.352899 (Simulation time: 3 hr 19 min 35 sec) 
Heartbeat CPU 0 instructions: 70000000 cycles: 173426411 heartbeat IPC: 0.547226 cumulative IPC: 0.355 (Simulation time: 3 hr 22 min 38 sec) 
Heartbeat CPU 0 instructions: 71000001 cycles: 176835527 heartbeat IPC: 0.293331 cumulative IPC: 0.353781 (Simulation time: 3 hr 26 min 8 sec) 
Heartbeat CPU 0 instructions: 72000000 cycles: 179091701 heartbeat IPC: 0.443228 cumulative IPC: 0.354936 (Simulation time: 3 hr 28 min 48 sec) 
Heartbeat CPU 0 instructions: 73000000 cycles: 180383715 heartbeat IPC: 0.773985 cumulative IPC: 0.358013 (Simulation time: 3 hr 31 min 27 sec) 
Heartbeat CPU 0 instructions: 74000001 cycles: 183103201 heartbeat IPC: 0.367717 cumulative IPC: 0.35816 (Simulation time: 3 hr 34 min 49 sec) 
Heartbeat CPU 0 instructions: 75000003 cycles: 186454606 heartbeat IPC: 0.298383 cumulative IPC: 0.35706 (Simulation time: 3 hr 38 min 14 sec) 
Heartbeat CPU 0 instructions: 76000000 cycles: 189500498 heartbeat IPC: 0.32831 cumulative IPC: 0.356587 (Simulation time: 3 hr 41 min 28 sec) 
Heartbeat CPU 0 instructions: 77000000 cycles: 191123432 heartbeat IPC: 0.616168 cumulative IPC: 0.358843 (Simulation time: 3 hr 43 min 53 sec) 
Heartbeat CPU 0 instructions: 78000000 cycles: 195031334 heartbeat IPC: 0.255892 cumulative IPC: 0.356732 (Simulation time: 3 hr 47 min 12 sec) 
Heartbeat CPU 0 instructions: 79000002 cycles: 196874898 heartbeat IPC: 0.542429 cumulative IPC: 0.358511 (Simulation time: 3 hr 49 min 28 sec) 
Heartbeat CPU 0 instructions: 80000000 cycles: 198169015 heartbeat IPC: 0.772726 cumulative IPC: 0.361278 (Simulation time: 3 hr 51 min 35 sec) 
Heartbeat CPU 0 instructions: 81000000 cycles: 200931922 heartbeat IPC: 0.361938 cumulative IPC: 0.361287 (Simulation time: 3 hr 54 min 33 sec) 
Heartbeat CPU 0 instructions: 82000000 cycles: 204268461 heartbeat IPC: 0.299712 cumulative IPC: 0.360259 (Simulation time: 3 hr 57 min 35 sec) 
Heartbeat CPU 0 instructions: 83000000 cycles: 207310071 heartbeat IPC: 0.328773 cumulative IPC: 0.359787 (Simulation time: 4 hr 1 min 4 sec) 
Heartbeat CPU 0 instructions: 84000000 cycles: 209022007 heartbeat IPC: 0.584134 cumulative IPC: 0.361664 (Simulation time: 4 hr 4 min 0 sec) 
Heartbeat CPU 0 instructions: 85000000 cycles: 213055147 heartbeat IPC: 0.247946 cumulative IPC: 0.359466 (Simulation time: 4 hr 7 min 17 sec) 
Heartbeat CPU 0 instructions: 86000002 cycles: 214522611 heartbeat IPC: 0.681449 cumulative IPC: 0.361715 (Simulation time: 4 hr 9 min 17 sec) 
Heartbeat CPU 0 instructions: 87000002 cycles: 215811437 heartbeat IPC: 0.7759 cumulative IPC: 0.36424 (Simulation time: 4 hr 11 min 23 sec) 
Heartbeat CPU 0 instructions: 88000000 cycles: 218605898 heartbeat IPC: 0.35785 cumulative IPC: 0.364156 (Simulation time: 4 hr 14 min 4 sec) 
Heartbeat CPU 0 instructions: 89000001 cycles: 222304444 heartbeat IPC: 0.270377 cumulative IPC: 0.362565 (Simulation time: 4 hr 16 min 55 sec) 
Heartbeat CPU 0 instructions: 90000001 cycles: 225173676 heartbeat IPC: 0.348525 cumulative IPC: 0.362382 (Simulation time: 4 hr 19 min 17 sec) 
Heartbeat CPU 0 instructions: 91000002 cycles: 227020996 heartbeat IPC: 0.541325 cumulative IPC: 0.363867 (Simulation time: 4 hr 21 min 33 sec) 
Heartbeat CPU 0 instructions: 92000000 cycles: 230839662 heartbeat IPC: 0.261871 cumulative IPC: 0.362147 (Simulation time: 4 hr 24 min 12 sec) 
Heartbeat CPU 0 instructions: 93000000 cycles: 232162830 heartbeat IPC: 0.755762 cumulative IPC: 0.364434 (Simulation time: 4 hr 25 min 54 sec) 
Heartbeat CPU 0 instructions: 94000000 cycles: 233554419 heartbeat IPC: 0.718603 cumulative IPC: 0.366585 (Simulation time: 4 hr 27 min 33 sec) 
Heartbeat CPU 0 instructions: 95000002 cycles: 236397189 heartbeat IPC: 0.35177 cumulative IPC: 0.366403 (Simulation time: 4 hr 29 min 39 sec) 
Heartbeat CPU 0 instructions: 96000000 cycles: 239442976 heartbeat IPC: 0.328322 cumulative IPC: 0.36591 (Simulation time: 4 hr 31 min 49 sec) 
Heartbeat CPU 0 instructions: 97000003 cycles: 241963322 heartbeat IPC: 0.396772 cumulative IPC: 0.366237 (Simulation time: 4 hr 33 min 29 sec) 
Heartbeat CPU 0 instructions: 98000000 cycles: 244263019 heartbeat IPC: 0.434839 cumulative IPC: 0.366895 (Simulation time: 4 hr 35 min 29 sec) 
Heartbeat CPU 0 instructions: 99000000 cycles: 247797152 heartbeat IPC: 0.282955 cumulative IPC: 0.365676 (Simulation time: 4 hr 37 min 18 sec) 
Heartbeat CPU 0 instructions: 100000000 cycles: 249118516 heartbeat IPC: 0.756794 cumulative IPC: 0.367788 (Simulation time: 4 hr 38 min 28 sec) 
Heartbeat CPU 0 instructions: 101000003 cycles: 251050795 heartbeat IPC: 0.517525 cumulative IPC: 0.368961 (Simulation time: 4 hr 39 min 43 sec) 
Heartbeat CPU 0 instructions: 102000001 cycles: 254045544 heartbeat IPC: 0.333917 cumulative IPC: 0.368541 (Simulation time: 4 hr 41 min 20 sec) 
Heartbeat CPU 0 instructions: 103000000 cycles: 256297452 heartbeat IPC: 0.444067 cumulative IPC: 0.369216 (Simulation time: 4 hr 42 min 47 sec) 
Heartbeat CPU 0 instructions: 104000000 cycles: 265617345 heartbeat IPC: 0.107297 cumulative IPC: 0.35987 (Simulation time: 4 hr 44 min 32 sec) 
Heartbeat CPU 0 instructions: 105000000 cycles: 267786524 heartbeat IPC: 0.461004 cumulative IPC: 0.360703 (Simulation time: 4 hr 45 min 56 sec) 
Heartbeat CPU 0 instructions: 106000002 cycles: 272216041 heartbeat IPC: 0.225759 cumulative IPC: 0.358471 (Simulation time: 4 hr 47 min 22 sec) 
Heartbeat CPU 0 instructions: 107000003 cycles: 276959528 heartbeat IPC: 0.210816 cumulative IPC: 0.355902 (Simulation time: 4 hr 48 min 39 sec) 
Heartbeat CPU 0 instructions: 108000000 cycles: 280500472 heartbeat IPC: 0.28241 cumulative IPC: 0.354959 (Simulation time: 4 hr 49 min 36 sec) 
Heartbeat CPU 0 instructions: 109000000 cycles: 283817791 heartbeat IPC: 0.301448 cumulative IPC: 0.354324 (Simulation time: 4 hr 50 min 26 sec) 
Heartbeat CPU 0 instructions: 110000003 cycles: 287650723 heartbeat IPC: 0.260898 cumulative IPC: 0.353059 (Simulation time: 4 hr 51 min 16 sec) 
Finished CPU 0 instructions: 100000003 cycles: 283238485 cummulative IPC: 0.353059 (Simulation time: 4 hr 51 min 16 sec) 

ChampSim completed all CPUs

Region of Interest Statistics

CPU 0 cummulative IPC: 0.353059 instructions: 100000003 cycles: 283238485
LLC TOTAL     ACCESS:    8737915  HIT:    3669713  MISS:    5068202
LLC LOAD      ACCESS:    2235079  HIT:     910148  MISS:    1324931
LLC RFO       ACCESS:     871488  HIT:     358114  MISS:     513374
LLC PREFETCH  ACCESS:    3456495  HIT:    1138288  MISS:    2318207
LLC WRITEBACK ACCESS:    2174853  HIT:    1263163  MISS:     911690
