
*** ChampSim Multicore Out-of-Order Simulator ***

Warmup Instructions: 10000000
Simulation Instructions: 100000000
Configuration: 2
Number of CPUs: 1
LLC sets: 2048
LLC ways: 16
Off-chip DRAM Channels: 1 Width: 64-bit Data Rate: 1600 MT/s

CPU 0 runs /datasets/cs240c-wi22-a00-public/data/Assignment2-gz/sphinx3_2520B.trace.gz
CPU 0 L1D next line prefetcher
CPU 0 L2C IP-based stride prefetcher
config 2, num_core 1, llc_sets 2048
Heartbeat CPU 0 instructions: 1000003 cycles: 338965 heartbeat IPC: 2.95017 cumulative IPC: 2.95017 (Simulation time: 0 hr 2 min 24 sec) 
Heartbeat CPU 0 instructions: 2000000 cycles: 737242 heartbeat IPC: 2.51081 cumulative IPC: 2.71281 (Simulation time: 0 hr 4 min 57 sec) 
Heartbeat CPU 0 instructions: 3000003 cycles: 1185131 heartbeat IPC: 2.2327 cumulative IPC: 2.53137 (Simulation time: 0 hr 7 min 27 sec) 
Heartbeat CPU 0 instructions: 4000000 cycles: 1524172 heartbeat IPC: 2.94949 cumulative IPC: 2.62438 (Simulation time: 0 hr 9 min 57 sec) 
Heartbeat CPU 0 instructions: 5000001 cycles: 1902515 heartbeat IPC: 2.64311 cumulative IPC: 2.6281 (Simulation time: 0 hr 12 min 40 sec) 
Heartbeat CPU 0 instructions: 6000001 cycles: 2368103 heartbeat IPC: 2.14782 cumulative IPC: 2.53367 (Simulation time: 0 hr 15 min 13 sec) 
Heartbeat CPU 0 instructions: 7000001 cycles: 2707043 heartbeat IPC: 2.95037 cumulative IPC: 2.58585 (Simulation time: 0 hr 18 min 13 sec) 
Heartbeat CPU 0 instructions: 8000000 cycles: 3056063 heartbeat IPC: 2.86516 cumulative IPC: 2.61775 (Simulation time: 0 hr 20 min 53 sec) 
Heartbeat CPU 0 instructions: 9000000 cycles: 3509577 heartbeat IPC: 2.205 cumulative IPC: 2.56441 (Simulation time: 0 hr 23 min 32 sec) 
Heartbeat CPU 0 instructions: 10000000 cycles: 3859724 heartbeat IPC: 2.85594 cumulative IPC: 2.59086 (Simulation time: 0 hr 26 min 16 sec) 

Warmup complete CPU 0 instructions: 10000004 cycles: 3859725 (Simulation time: 0 hr 26 min 16 sec) 

Heartbeat CPU 0 instructions: 11000001 cycles: 4575500 heartbeat IPC: 1.39709 cumulative IPC: 1.39708 (Simulation time: 0 hr 29 min 24 sec) 
Heartbeat CPU 0 instructions: 12000000 cycles: 5588352 heartbeat IPC: 0.98731 cumulative IPC: 1.15699 (Simulation time: 0 hr 32 min 25 sec) 
Heartbeat CPU 0 instructions: 13000002 cycles: 6408568 heartbeat IPC: 1.21919 cumulative IPC: 1.177 (Simulation time: 0 hr 35 min 9 sec) 
Heartbeat CPU 0 instructions: 14000002 cycles: 7094558 heartbeat IPC: 1.45775 cumulative IPC: 1.23654 (Simulation time: 0 hr 37 min 40 sec) 
Heartbeat CPU 0 instructions: 15000003 cycles: 8032880 heartbeat IPC: 1.06573 cumulative IPC: 1.19813 (Simulation time: 0 hr 40 min 16 sec) 
Heartbeat CPU 0 instructions: 16000000 cycles: 8840894 heartbeat IPC: 1.2376 cumulative IPC: 1.20454 (Simulation time: 0 hr 43 min 15 sec) 
Heartbeat CPU 0 instructions: 17000000 cycles: 9503826 heartbeat IPC: 1.50845 cumulative IPC: 1.24023 (Simulation time: 0 hr 46 min 13 sec) 
Heartbeat CPU 0 instructions: 18000002 cycles: 10402736 heartbeat IPC: 1.11246 cumulative IPC: 1.22268 (Simulation time: 0 hr 49 min 22 sec) 
Heartbeat CPU 0 instructions: 19000001 cycles: 11204165 heartbeat IPC: 1.24777 cumulative IPC: 1.22542 (Simulation time: 0 hr 52 min 26 sec) 
Heartbeat CPU 0 instructions: 20000000 cycles: 11855353 heartbeat IPC: 1.53565 cumulative IPC: 1.25068 (Simulation time: 0 hr 55 min 2 sec) 
Heartbeat CPU 0 instructions: 21000001 cycles: 13023313 heartbeat IPC: 0.856195 cumulative IPC: 1.2004 (Simulation time: 0 hr 57 min 36 sec) 
Heartbeat CPU 0 instructions: 22000002 cycles: 13999647 heartbeat IPC: 1.02424 cumulative IPC: 1.18344 (Simulation time: 1 hr 0 min 29 sec) 
Heartbeat CPU 0 instructions: 23000001 cycles: 14823514 heartbeat IPC: 1.21379 cumulative IPC: 1.18572 (Simulation time: 1 hr 3 min 28 sec) 
Heartbeat CPU 0 instructions: 24000000 cycles: 15483463 heartbeat IPC: 1.51527 cumulative IPC: 1.20443 (Simulation time: 1 hr 5 min 47 sec) 
Heartbeat CPU 0 instructions: 25000003 cycles: 16305501 heartbeat IPC: 1.21649 cumulative IPC: 1.20523 (Simulation time: 1 hr 8 min 1 sec) 
Heartbeat CPU 0 instructions: 26000000 cycles: 17119292 heartbeat IPC: 1.22881 cumulative IPC: 1.20668 (Simulation time: 1 hr 10 min 28 sec) 
Heartbeat CPU 0 instructions: 27000002 cycles: 17781894 heartbeat IPC: 1.5092 cumulative IPC: 1.22107 (Simulation time: 1 hr 12 min 46 sec) 
Heartbeat CPU 0 instructions: 28000000 cycles: 18629452 heartbeat IPC: 1.17986 cumulative IPC: 1.21871 (Simulation time: 1 hr 14 min 51 sec) 
Heartbeat CPU 0 instructions: 29000003 cycles: 19443466 heartbeat IPC: 1.22848 cumulative IPC: 1.21922 (Simulation time: 1 hr 16 min 52 sec) 
Heartbeat CPU 0 instructions: 30000003 cycles: 20106199 heartbeat IPC: 1.5089 cumulative IPC: 1.23104 (Simulation time: 1 hr 19 min 3 sec) 
Heartbeat CPU 0 instructions: 31000001 cycles: 20935257 heartbeat IPC: 1.20619 cumulative IPC: 1.22983 (Simulation time: 1 hr 21 min 3 sec) 
Heartbeat CPU 0 instructions: 32000000 cycles: 21721840 heartbeat IPC: 1.27132 cumulative IPC: 1.23166 (Simulation time: 1 hr 22 min 57 sec) 
Heartbeat CPU 0 instructions: 33000000 cycles: 22391154 heartbeat IPC: 1.49407 cumulative IPC: 1.24113 (Simulation time: 1 hr 24 min 52 sec) 
Heartbeat CPU 0 instructions: 34000000 cycles: 23218846 heartbeat IPC: 1.20818 cumulative IPC: 1.23973 (Simulation time: 1 hr 26 min 58 sec) 
Heartbeat CPU 0 instructions: 35000003 cycles: 23999017 heartbeat IPC: 1.28177 cumulative IPC: 1.24135 (Simulation time: 1 hr 28 min 48 sec) 
Heartbeat CPU 0 instructions: 36000000 cycles: 24674463 heartbeat IPC: 1.4805 cumulative IPC: 1.24911 (Simulation time: 1 hr 30 min 42 sec) 
Heartbeat CPU 0 instructions: 37000000 cycles: 25521834 heartbeat IPC: 1.18012 cumulative IPC: 1.24642 (Simulation time: 1 hr 32 min 24 sec) 
Heartbeat CPU 0 instructions: 38000000 cycles: 26304337 heartbeat IPC: 1.27795 cumulative IPC: 1.24752 (Simulation time: 1 hr 34 min 7 sec) 
Heartbeat CPU 0 instructions: 39000000 cycles: 27006459 heartbeat IPC: 1.42425 cumulative IPC: 1.25288 (Simulation time: 1 hr 35 min 56 sec) 
Heartbeat CPU 0 instructions: 40000000 cycles: 27871560 heartbeat IPC: 1.15593 cumulative IPC: 1.24938 (Simulation time: 1 hr 38 min 6 sec) 
Heartbeat CPU 0 instructions: 41000001 cycles: 28628289 heartbeat IPC: 1.32148 cumulative IPC: 1.25159 (Simulation time: 1 hr 40 min 6 sec) 
Heartbeat CPU 0 instructions: 42000002 cycles: 29339833 heartbeat IPC: 1.4054 cumulative IPC: 1.25588 (Simulation time: 1 hr 42 min 0 sec) 
Heartbeat CPU 0 instructions: 43000001 cycles: 30168167 heartbeat IPC: 1.20724 cumulative IPC: 1.25435 (Simulation time: 1 hr 43 min 53 sec) 
Heartbeat CPU 0 instructions: 44000000 cycles: 30924309 heartbeat IPC: 1.3225 cumulative IPC: 1.25625 (Simulation time: 1 hr 45 min 32 sec) 
Heartbeat CPU 0 instructions: 45000001 cycles: 31649348 heartbeat IPC: 1.37924 cumulative IPC: 1.25946 (Simulation time: 1 hr 47 min 14 sec) 
Heartbeat CPU 0 instructions: 46000001 cycles: 32503829 heartbeat IPC: 1.1703 cumulative IPC: 1.2568 (Simulation time: 1 hr 48 min 57 sec) 
Heartbeat CPU 0 instructions: 47000003 cycles: 33254751 heartbeat IPC: 1.3317 cumulative IPC: 1.25872 (Simulation time: 1 hr 51 min 21 sec) 
Heartbeat CPU 0 instructions: 48000000 cycles: 33993536 heartbeat IPC: 1.35357 cumulative IPC: 1.26104 (Simulation time: 1 hr 54 min 14 sec) 
Heartbeat CPU 0 instructions: 49000002 cycles: 34814263 heartbeat IPC: 1.21843 cumulative IPC: 1.25991 (Simulation time: 1 hr 56 min 50 sec) 
Heartbeat CPU 0 instructions: 50000002 cycles: 35545302 heartbeat IPC: 1.36792 cumulative IPC: 1.2624 (Simulation time: 1 hr 59 min 35 sec) 
Heartbeat CPU 0 instructions: 51000001 cycles: 36284700 heartbeat IPC: 1.35245 cumulative IPC: 1.26446 (Simulation time: 2 hr 2 min 18 sec) 
Heartbeat CPU 0 instructions: 52000000 cycles: 37087006 heartbeat IPC: 1.24641 cumulative IPC: 1.26402 (Simulation time: 2 hr 5 min 9 sec) 
Heartbeat CPU 0 instructions: 53000003 cycles: 37812591 heartbeat IPC: 1.3782 cumulative IPC: 1.26646 (Simulation time: 2 hr 8 min 4 sec) 
Heartbeat CPU 0 instructions: 54000001 cycles: 38538943 heartbeat IPC: 1.37674 cumulative IPC: 1.26877 (Simulation time: 2 hr 10 min 47 sec) 
Heartbeat CPU 0 instructions: 55000000 cycles: 39330094 heartbeat IPC: 1.26398 cumulative IPC: 1.26866 (Simulation time: 2 hr 13 min 41 sec) 
Heartbeat CPU 0 instructions: 56000000 cycles: 40044640 heartbeat IPC: 1.39949 cumulative IPC: 1.27125 (Simulation time: 2 hr 16 min 24 sec) 
Heartbeat CPU 0 instructions: 57000000 cycles: 40906890 heartbeat IPC: 1.15976 cumulative IPC: 1.26865 (Simulation time: 2 hr 19 min 11 sec) 
Heartbeat CPU 0 instructions: 58000002 cycles: 42036810 heartbeat IPC: 0.88502 cumulative IPC: 1.2573 (Simulation time: 2 hr 21 min 46 sec) 
Heartbeat CPU 0 instructions: 59000001 cycles: 42874638 heartbeat IPC: 1.19356 cumulative IPC: 1.25593 (Simulation time: 2 hr 24 min 45 sec) 
Heartbeat CPU 0 instructions: 60000000 cycles: 43632640 heartbeat IPC: 1.31926 cumulative IPC: 1.25714 (Simulation time: 2 hr 27 min 29 sec) 
Heartbeat CPU 0 instructions: 61000001 cycles: 44336256 heartbeat IPC: 1.42123 cumulative IPC: 1.25999 (Simulation time: 2 hr 30 min 9 sec) 
Heartbeat CPU 0 instructions: 62000000 cycles: 45141002 heartbeat IPC: 1.24263 cumulative IPC: 1.25965 (Simulation time: 2 hr 32 min 51 sec) 
Heartbeat CPU 0 instructions: 63000002 cycles: 45866876 heartbeat IPC: 1.37765 cumulative IPC: 1.26169 (Simulation time: 2 hr 35 min 35 sec) 
Heartbeat CPU 0 instructions: 64000000 cycles: 46597100 heartbeat IPC: 1.36944 cumulative IPC: 1.26353 (Simulation time: 2 hr 38 min 33 sec) 
Heartbeat CPU 0 instructions: 65000003 cycles: 47397114 heartbeat IPC: 1.24998 cumulative IPC: 1.26328 (Simulation time: 2 hr 41 min 20 sec) 
Heartbeat CPU 0 instructions: 66000003 cycles: 48110947 heartbeat IPC: 1.40089 cumulative IPC: 1.2655 (Simulation time: 2 hr 43 min 58 sec) 
Heartbeat CPU 0 instructions: 67000003 cycles: 48894100 heartbeat IPC: 1.27689 cumulative IPC: 1.2657 (Simulation time: 2 hr 46 min 53 sec) 
Heartbeat CPU 0 instructions: 68000000 cycles: 49698868 heartbeat IPC: 1.24259 cumulative IPC: 1.26529 (Simulation time: 2 hr 49 min 55 sec) 
Heartbeat CPU 0 instructions: 69000003 cycles: 50414661 heartbeat IPC: 1.39706 cumulative IPC: 1.26732 (Simulation time: 2 hr 52 min 45 sec) 
Heartbeat CPU 0 instructions: 70000000 cycles: 51196178 heartbeat IPC: 1.27956 cumulative IPC: 1.26752 (Simulation time: 2 hr 55 min 29 sec) 
Heartbeat CPU 0 instructions: 71000002 cycles: 52007370 heartbeat IPC: 1.23276 cumulative IPC: 1.26694 (Simulation time: 2 hr 58 min 27 sec) 
Heartbeat CPU 0 instructions: 72000000 cycles: 52714560 heartbeat IPC: 1.41404 cumulative IPC: 1.26907 (Simulation time: 3 hr 1 min 17 sec) 
Heartbeat CPU 0 instructions: 73000003 cycles: 53483970 heartbeat IPC: 1.2997 cumulative IPC: 1.26954 (Simulation time: 3 hr 3 min 51 sec) 
Heartbeat CPU 0 instructions: 74000003 cycles: 54287698 heartbeat IPC: 1.2442 cumulative IPC: 1.26914 (Simulation time: 3 hr 6 min 40 sec) 
Heartbeat CPU 0 instructions: 75000002 cycles: 54986928 heartbeat IPC: 1.43014 cumulative IPC: 1.27134 (Simulation time: 3 hr 9 min 25 sec) 
Heartbeat CPU 0 instructions: 76000000 cycles: 55754730 heartbeat IPC: 1.30242 cumulative IPC: 1.2718 (Simulation time: 3 hr 12 min 12 sec) 
Heartbeat CPU 0 instructions: 77000003 cycles: 56580252 heartbeat IPC: 1.21136 cumulative IPC: 1.27085 (Simulation time: 3 hr 14 min 42 sec) 
Heartbeat CPU 0 instructions: 78000000 cycles: 57272268 heartbeat IPC: 1.44505 cumulative IPC: 1.27311 (Simulation time: 3 hr 17 min 27 sec) 
Heartbeat CPU 0 instructions: 79000003 cycles: 58045368 heartbeat IPC: 1.2935 cumulative IPC: 1.2734 (Simulation time: 3 hr 20 min 4 sec) 
Heartbeat CPU 0 instructions: 80000000 cycles: 58861402 heartbeat IPC: 1.22544 cumulative IPC: 1.27269 (Simulation time: 3 hr 23 min 5 sec) 
Heartbeat CPU 0 instructions: 81000001 cycles: 59556647 heartbeat IPC: 1.43834 cumulative IPC: 1.27476 (Simulation time: 3 hr 25 min 55 sec) 
Heartbeat CPU 0 instructions: 82000002 cycles: 60351501 heartbeat IPC: 1.25809 cumulative IPC: 1.27452 (Simulation time: 3 hr 28 min 47 sec) 
Heartbeat CPU 0 instructions: 83000003 cycles: 61179021 heartbeat IPC: 1.20843 cumulative IPC: 1.27357 (Simulation time: 3 hr 31 min 44 sec) 
Heartbeat CPU 0 instructions: 84000000 cycles: 61862650 heartbeat IPC: 1.46278 cumulative IPC: 1.2758 (Simulation time: 3 hr 34 min 28 sec) 
Heartbeat CPU 0 instructions: 85000001 cycles: 62656471 heartbeat IPC: 1.25973 cumulative IPC: 1.27558 (Simulation time: 3 hr 37 min 4 sec) 
Heartbeat CPU 0 instructions: 86000000 cycles: 63449669 heartbeat IPC: 1.26072 cumulative IPC: 1.27538 (Simulation time: 3 hr 39 min 52 sec) 
Heartbeat CPU 0 instructions: 87000003 cycles: 64119291 heartbeat IPC: 1.49338 cumulative IPC: 1.27781 (Simulation time: 3 hr 42 min 29 sec) 
Heartbeat CPU 0 instructions: 88000000 cycles: 64920554 heartbeat IPC: 1.24803 cumulative IPC: 1.27741 (Simulation time: 3 hr 45 min 12 sec) 
Heartbeat CPU 0 instructions: 89000002 cycles: 65700368 heartbeat IPC: 1.28236 cumulative IPC: 1.27748 (Simulation time: 3 hr 47 min 49 sec) 
Heartbeat CPU 0 instructions: 90000001 cycles: 66361752 heartbeat IPC: 1.51198 cumulative IPC: 1.27996 (Simulation time: 3 hr 50 min 22 sec) 
Heartbeat CPU 0 instructions: 91000001 cycles: 67171950 heartbeat IPC: 1.23427 cumulative IPC: 1.27937 (Simulation time: 3 hr 52 min 56 sec) 
Heartbeat CPU 0 instructions: 92000000 cycles: 67949725 heartbeat IPC: 1.28572 cumulative IPC: 1.27945 (Simulation time: 3 hr 55 min 32 sec) 
Heartbeat CPU 0 instructions: 93000002 cycles: 68616820 heartbeat IPC: 1.49904 cumulative IPC: 1.28171 (Simulation time: 3 hr 57 min 55 sec) 
Heartbeat CPU 0 instructions: 94000000 cycles: 69451001 heartbeat IPC: 1.19878 cumulative IPC: 1.28066 (Simulation time: 4 hr 0 min 22 sec) 
Heartbeat CPU 0 instructions: 95000000 cycles: 70220768 heartbeat IPC: 1.29909 cumulative IPC: 1.28087 (Simulation time: 4 hr 2 min 58 sec) 
Heartbeat CPU 0 instructions: 96000000 cycles: 70918902 heartbeat IPC: 1.43239 cumulative IPC: 1.28245 (Simulation time: 4 hr 5 min 22 sec) 
Heartbeat CPU 0 instructions: 97000002 cycles: 72095691 heartbeat IPC: 0.849772 cumulative IPC: 1.27499 (Simulation time: 4 hr 7 min 40 sec) 
Heartbeat CPU 0 instructions: 98000003 cycles: 73052175 heartbeat IPC: 1.0455 cumulative IPC: 1.27182 (Simulation time: 4 hr 9 min 53 sec) 
Heartbeat CPU 0 instructions: 99000000 cycles: 73864446 heartbeat IPC: 1.23111 cumulative IPC: 1.27134 (Simulation time: 4 hr 12 min 7 sec) 
Heartbeat CPU 0 instructions: 100000000 cycles: 74534493 heartbeat IPC: 1.49243 cumulative IPC: 1.27344 (Simulation time: 4 hr 14 min 25 sec) 
Heartbeat CPU 0 instructions: 101000001 cycles: 75887024 heartbeat IPC: 0.739355 cumulative IPC: 1.26341 (Simulation time: 4 hr 16 min 53 sec) 
Heartbeat CPU 0 instructions: 102000002 cycles: 76732830 heartbeat IPC: 1.18231 cumulative IPC: 1.26247 (Simulation time: 4 hr 19 min 1 sec) 
Heartbeat CPU 0 instructions: 103000001 cycles: 77460015 heartbeat IPC: 1.37516 cumulative IPC: 1.26358 (Simulation time: 4 hr 20 min 56 sec) 
Heartbeat CPU 0 instructions: 104000000 cycles: 78698974 heartbeat IPC: 0.807128 cumulative IPC: 1.25603 (Simulation time: 4 hr 22 min 54 sec) 
Heartbeat CPU 0 instructions: 105000002 cycles: 79552325 heartbeat IPC: 1.17185 cumulative IPC: 1.25508 (Simulation time: 4 hr 24 min 49 sec) 
Heartbeat CPU 0 instructions: 106000000 cycles: 80326008 heartbeat IPC: 1.29252 cumulative IPC: 1.25546 (Simulation time: 4 hr 26 min 34 sec) 
Heartbeat CPU 0 instructions: 107000000 cycles: 81342045 heartbeat IPC: 0.984216 cumulative IPC: 1.2519 (Simulation time: 4 hr 28 min 14 sec) 
Heartbeat CPU 0 instructions: 108000000 cycles: 82335966 heartbeat IPC: 1.00612 cumulative IPC: 1.24879 (Simulation time: 4 hr 29 min 48 sec) 
Heartbeat CPU 0 instructions: 109000003 cycles: 83138225 heartbeat IPC: 1.24648 cumulative IPC: 1.24876 (Simulation time: 4 hr 31 min 24 sec) 
Heartbeat CPU 0 instructions: 110000000 cycles: 83912151 heartbeat IPC: 1.29211 cumulative IPC: 1.24918 (Simulation time: 4 hr 32 min 46 sec) 
Finished CPU 0 instructions: 100000003 cycles: 80052430 cummulative IPC: 1.24918 (Simulation time: 4 hr 32 min 46 sec) 

ChampSim completed all CPUs

Region of Interest Statistics

CPU 0 cummulative IPC: 1.24918 instructions: 100000003 cycles: 80052430
LLC TOTAL     ACCESS:    1445946  HIT:     818867  MISS:     627079
LLC LOAD      ACCESS:     118951  HIT:     100390  MISS:      18561
LLC RFO       ACCESS:     121994  HIT:     119063  MISS:       2931
LLC PREFETCH  ACCESS:    1076607  HIT:     471400  MISS:     605207
LLC WRITEBACK ACCESS:     128394  HIT:     128014  MISS:        380
