
*** ChampSim Multicore Out-of-Order Simulator ***

Warmup Instructions: 10000000
Simulation Instructions: 100000000
Configuration: 2
Number of CPUs: 1
LLC sets: 2048
LLC ways: 16
Off-chip DRAM Channels: 1 Width: 64-bit Data Rate: 1600 MT/s

CPU 0 runs /datasets/cs240c-wi22-a00-public/data/Assignment2-gz/wrf_1228B.trace.gz
CPU 0 L1D next line prefetcher
CPU 0 L2C IP-based stride prefetcher
config 2, num_core 1, llc_sets 2048
Heartbeat CPU 0 instructions: 1000003 cycles: 591063 heartbeat IPC: 1.69187 cumulative IPC: 1.69187 (Simulation time: 0 hr 2 min 52 sec) 
Heartbeat CPU 0 instructions: 2000003 cycles: 1111219 heartbeat IPC: 1.9225 cumulative IPC: 1.79983 (Simulation time: 0 hr 5 min 44 sec) 
Heartbeat CPU 0 instructions: 3000000 cycles: 1729184 heartbeat IPC: 1.61821 cumulative IPC: 1.73492 (Simulation time: 0 hr 8 min 54 sec) 
Heartbeat CPU 0 instructions: 4000000 cycles: 2349835 heartbeat IPC: 1.61121 cumulative IPC: 1.70225 (Simulation time: 0 hr 12 min 7 sec) 
Heartbeat CPU 0 instructions: 5000000 cycles: 3052198 heartbeat IPC: 1.42377 cumulative IPC: 1.63816 (Simulation time: 0 hr 15 min 20 sec) 
Heartbeat CPU 0 instructions: 6000000 cycles: 3612304 heartbeat IPC: 1.78538 cumulative IPC: 1.66099 (Simulation time: 0 hr 18 min 27 sec) 
Heartbeat CPU 0 instructions: 7000001 cycles: 4165076 heartbeat IPC: 1.80907 cumulative IPC: 1.68064 (Simulation time: 0 hr 21 min 38 sec) 
Heartbeat CPU 0 instructions: 8000000 cycles: 4716441 heartbeat IPC: 1.81368 cumulative IPC: 1.69619 (Simulation time: 0 hr 24 min 27 sec) 
Heartbeat CPU 0 instructions: 9000002 cycles: 5266621 heartbeat IPC: 1.81759 cumulative IPC: 1.70888 (Simulation time: 0 hr 27 min 39 sec) 
Heartbeat CPU 0 instructions: 10000001 cycles: 5819517 heartbeat IPC: 1.80866 cumulative IPC: 1.71836 (Simulation time: 0 hr 30 min 49 sec) 

Warmup complete CPU 0 instructions: 10000001 cycles: 5819517 (Simulation time: 0 hr 30 min 49 sec) 

Heartbeat CPU 0 instructions: 11000003 cycles: 6709022 heartbeat IPC: 1.12422 cumulative IPC: 1.12422 (Simulation time: 0 hr 33 min 41 sec) 
Heartbeat CPU 0 instructions: 12000000 cycles: 7707616 heartbeat IPC: 1.00141 cumulative IPC: 1.05927 (Simulation time: 0 hr 36 min 51 sec) 
Heartbeat CPU 0 instructions: 13000003 cycles: 8710914 heartbeat IPC: 0.996716 cumulative IPC: 1.03756 (Simulation time: 0 hr 39 min 54 sec) 
Heartbeat CPU 0 instructions: 14000002 cycles: 9617301 heartbeat IPC: 1.10328 cumulative IPC: 1.05325 (Simulation time: 0 hr 42 min 42 sec) 
Heartbeat CPU 0 instructions: 15000001 cycles: 10390884 heartbeat IPC: 1.29268 cumulative IPC: 1.09376 (Simulation time: 0 hr 45 min 32 sec) 
Heartbeat CPU 0 instructions: 16000000 cycles: 11284254 heartbeat IPC: 1.11936 cumulative IPC: 1.09795 (Simulation time: 0 hr 48 min 7 sec) 
Heartbeat CPU 0 instructions: 17000002 cycles: 12197496 heartbeat IPC: 1.095 cumulative IPC: 1.09753 (Simulation time: 0 hr 50 min 52 sec) 
Heartbeat CPU 0 instructions: 18000003 cycles: 13020264 heartbeat IPC: 1.21541 cumulative IPC: 1.111 (Simulation time: 0 hr 53 min 51 sec) 
Heartbeat CPU 0 instructions: 19000000 cycles: 13803127 heartbeat IPC: 1.27736 cumulative IPC: 1.12731 (Simulation time: 0 hr 56 min 41 sec) 
Heartbeat CPU 0 instructions: 20000000 cycles: 14683777 heartbeat IPC: 1.13552 cumulative IPC: 1.12813 (Simulation time: 0 hr 59 min 19 sec) 
Heartbeat CPU 0 instructions: 21000000 cycles: 15582554 heartbeat IPC: 1.11262 cumulative IPC: 1.1267 (Simulation time: 1 hr 1 min 59 sec) 
Heartbeat CPU 0 instructions: 22000000 cycles: 16501213 heartbeat IPC: 1.08854 cumulative IPC: 1.12342 (Simulation time: 1 hr 4 min 30 sec) 
Heartbeat CPU 0 instructions: 23000003 cycles: 17353216 heartbeat IPC: 1.17371 cumulative IPC: 1.12713 (Simulation time: 1 hr 7 min 34 sec) 
Heartbeat CPU 0 instructions: 24000000 cycles: 18364179 heartbeat IPC: 0.989153 cumulative IPC: 1.11601 (Simulation time: 1 hr 10 min 35 sec) 
Heartbeat CPU 0 instructions: 25000000 cycles: 19384186 heartbeat IPC: 0.980385 cumulative IPC: 1.10581 (Simulation time: 1 hr 13 min 44 sec) 
Heartbeat CPU 0 instructions: 26000003 cycles: 20296386 heartbeat IPC: 1.09625 cumulative IPC: 1.10521 (Simulation time: 1 hr 16 min 57 sec) 
Heartbeat CPU 0 instructions: 27000003 cycles: 21268896 heartbeat IPC: 1.02827 cumulative IPC: 1.10037 (Simulation time: 1 hr 20 min 4 sec) 
Heartbeat CPU 0 instructions: 28000000 cycles: 22327037 heartbeat IPC: 0.945051 cumulative IPC: 1.09041 (Simulation time: 1 hr 23 min 8 sec) 
Heartbeat CPU 0 instructions: 29000003 cycles: 23916720 heartbeat IPC: 0.629058 cumulative IPC: 1.04989 (Simulation time: 1 hr 26 min 27 sec) 
Heartbeat CPU 0 instructions: 30000000 cycles: 25463182 heartbeat IPC: 0.646635 cumulative IPC: 1.01814 (Simulation time: 1 hr 29 min 29 sec) 
Heartbeat CPU 0 instructions: 31000003 cycles: 27505757 heartbeat IPC: 0.48958 cumulative IPC: 0.968356 (Simulation time: 1 hr 33 min 15 sec) 
Heartbeat CPU 0 instructions: 32000000 cycles: 29491047 heartbeat IPC: 0.503703 cumulative IPC: 0.929386 (Simulation time: 1 hr 36 min 21 sec) 
Heartbeat CPU 0 instructions: 33000001 cycles: 30965850 heartbeat IPC: 0.678057 cumulative IPC: 0.914646 (Simulation time: 1 hr 39 min 25 sec) 
Heartbeat CPU 0 instructions: 34000002 cycles: 32465511 heartbeat IPC: 0.666818 cumulative IPC: 0.900698 (Simulation time: 1 hr 42 min 39 sec) 
Heartbeat CPU 0 instructions: 35000001 cycles: 34008311 heartbeat IPC: 0.648171 cumulative IPC: 0.886877 (Simulation time: 1 hr 45 min 46 sec) 
Heartbeat CPU 0 instructions: 36000000 cycles: 34866147 heartbeat IPC: 1.16572 cumulative IPC: 0.895112 (Simulation time: 1 hr 48 min 50 sec) 
Heartbeat CPU 0 instructions: 37000001 cycles: 35757768 heartbeat IPC: 1.12155 cumulative IPC: 0.901856 (Simulation time: 1 hr 51 min 49 sec) 
Heartbeat CPU 0 instructions: 38000003 cycles: 36634887 heartbeat IPC: 1.1401 cumulative IPC: 0.908638 (Simulation time: 1 hr 54 min 51 sec) 
Heartbeat CPU 0 instructions: 39000002 cycles: 37570605 heartbeat IPC: 1.0687 cumulative IPC: 0.913355 (Simulation time: 1 hr 57 min 44 sec) 
Heartbeat CPU 0 instructions: 40000000 cycles: 38458403 heartbeat IPC: 1.12638 cumulative IPC: 0.919149 (Simulation time: 2 hr 0 min 55 sec) 
Heartbeat CPU 0 instructions: 41000000 cycles: 39396241 heartbeat IPC: 1.06628 cumulative IPC: 0.923259 (Simulation time: 2 hr 4 min 8 sec) 
Heartbeat CPU 0 instructions: 42000002 cycles: 40353749 heartbeat IPC: 1.04438 cumulative IPC: 0.926617 (Simulation time: 2 hr 7 min 17 sec) 
Heartbeat CPU 0 instructions: 43000002 cycles: 41325278 heartbeat IPC: 1.02931 cumulative IPC: 0.929427 (Simulation time: 2 hr 10 min 16 sec) 
Heartbeat CPU 0 instructions: 44000000 cycles: 42157540 heartbeat IPC: 1.20154 cumulative IPC: 0.935659 (Simulation time: 2 hr 13 min 4 sec) 
Heartbeat CPU 0 instructions: 45000000 cycles: 42956346 heartbeat IPC: 1.25187 cumulative IPC: 0.942461 (Simulation time: 2 hr 15 min 23 sec) 
Heartbeat CPU 0 instructions: 46000001 cycles: 43771416 heartbeat IPC: 1.22689 cumulative IPC: 0.948569 (Simulation time: 2 hr 18 min 9 sec) 
Heartbeat CPU 0 instructions: 47000001 cycles: 44607224 heartbeat IPC: 1.19645 cumulative IPC: 0.95391 (Simulation time: 2 hr 20 min 42 sec) 
Heartbeat CPU 0 instructions: 48000000 cycles: 45421838 heartbeat IPC: 1.22757 cumulative IPC: 0.95954 (Simulation time: 2 hr 23 min 41 sec) 
Heartbeat CPU 0 instructions: 49000001 cycles: 46261912 heartbeat IPC: 1.19037 cumulative IPC: 0.964335 (Simulation time: 2 hr 26 min 23 sec) 
Heartbeat CPU 0 instructions: 50000002 cycles: 47157436 heartbeat IPC: 1.11667 cumulative IPC: 0.967635 (Simulation time: 2 hr 29 min 17 sec) 
Heartbeat CPU 0 instructions: 51000001 cycles: 48053371 heartbeat IPC: 1.11615 cumulative IPC: 0.970785 (Simulation time: 2 hr 32 min 3 sec) 
Heartbeat CPU 0 instructions: 52000000 cycles: 48967280 heartbeat IPC: 1.0942 cumulative IPC: 0.973399 (Simulation time: 2 hr 34 min 49 sec) 
Heartbeat CPU 0 instructions: 53000002 cycles: 49863782 heartbeat IPC: 1.11545 cumulative IPC: 0.976291 (Simulation time: 2 hr 37 min 50 sec) 
Heartbeat CPU 0 instructions: 54000001 cycles: 50785009 heartbeat IPC: 1.08551 cumulative IPC: 0.978528 (Simulation time: 2 hr 41 min 3 sec) 
Heartbeat CPU 0 instructions: 55000001 cycles: 51706232 heartbeat IPC: 1.08551 cumulative IPC: 0.980676 (Simulation time: 2 hr 44 min 2 sec) 
Heartbeat CPU 0 instructions: 56000000 cycles: 52639287 heartbeat IPC: 1.07175 cumulative IPC: 0.982491 (Simulation time: 2 hr 46 min 36 sec) 
Heartbeat CPU 0 instructions: 57000001 cycles: 53622369 heartbeat IPC: 1.01721 cumulative IPC: 0.983205 (Simulation time: 2 hr 49 min 26 sec) 
Heartbeat CPU 0 instructions: 58000000 cycles: 54625638 heartbeat IPC: 0.996741 cumulative IPC: 0.983483 (Simulation time: 2 hr 52 min 10 sec) 
Heartbeat CPU 0 instructions: 59000001 cycles: 56294314 heartbeat IPC: 0.599278 cumulative IPC: 0.970782 (Simulation time: 2 hr 55 min 22 sec) 
Heartbeat CPU 0 instructions: 60000000 cycles: 57887829 heartbeat IPC: 0.627543 cumulative IPC: 0.960277 (Simulation time: 2 hr 58 min 27 sec) 
Heartbeat CPU 0 instructions: 61000000 cycles: 60156964 heartbeat IPC: 0.440697 cumulative IPC: 0.938579 (Simulation time: 3 hr 1 min 43 sec) 
Heartbeat CPU 0 instructions: 62000000 cycles: 61867109 heartbeat IPC: 0.584746 cumulative IPC: 0.927783 (Simulation time: 3 hr 4 min 51 sec) 
Heartbeat CPU 0 instructions: 63000001 cycles: 63361093 heartbeat IPC: 0.669352 cumulative IPC: 0.921073 (Simulation time: 3 hr 7 min 48 sec) 
Heartbeat CPU 0 instructions: 64000000 cycles: 64884037 heartbeat IPC: 0.656622 cumulative IPC: 0.914254 (Simulation time: 3 hr 10 min 59 sec) 
Heartbeat CPU 0 instructions: 65000003 cycles: 66378866 heartbeat IPC: 0.668975 cumulative IPC: 0.9082 (Simulation time: 3 hr 13 min 53 sec) 
Heartbeat CPU 0 instructions: 66000000 cycles: 67874478 heartbeat IPC: 0.668621 cumulative IPC: 0.902426 (Simulation time: 3 hr 16 min 59 sec) 
Heartbeat CPU 0 instructions: 67000000 cycles: 69369002 heartbeat IPC: 0.669109 cumulative IPC: 0.896939 (Simulation time: 3 hr 19 min 58 sec) 
Heartbeat CPU 0 instructions: 68000000 cycles: 70863456 heartbeat IPC: 0.669141 cumulative IPC: 0.891705 (Simulation time: 3 hr 22 min 44 sec) 
Heartbeat CPU 0 instructions: 69000000 cycles: 72370704 heartbeat IPC: 0.663461 cumulative IPC: 0.886536 (Simulation time: 3 hr 26 min 14 sec) 
Heartbeat CPU 0 instructions: 70000001 cycles: 73867284 heartbeat IPC: 0.668191 cumulative IPC: 0.881734 (Simulation time: 3 hr 30 min 6 sec) 
Heartbeat CPU 0 instructions: 71000001 cycles: 75361351 heartbeat IPC: 0.669314 cumulative IPC: 0.87717 (Simulation time: 3 hr 34 min 1 sec) 
Heartbeat CPU 0 instructions: 72000000 cycles: 76844303 heartbeat IPC: 0.67433 cumulative IPC: 0.872935 (Simulation time: 3 hr 37 min 41 sec) 
Heartbeat CPU 0 instructions: 73000003 cycles: 78332014 heartbeat IPC: 0.672176 cumulative IPC: 0.868816 (Simulation time: 3 hr 41 min 8 sec) 
Heartbeat CPU 0 instructions: 74000000 cycles: 79829544 heartbeat IPC: 0.667764 cumulative IPC: 0.864748 (Simulation time: 3 hr 44 min 0 sec) 
Heartbeat CPU 0 instructions: 75000001 cycles: 81323531 heartbeat IPC: 0.669351 cumulative IPC: 0.860881 (Simulation time: 3 hr 46 min 36 sec) 
Heartbeat CPU 0 instructions: 76000000 cycles: 82819995 heartbeat IPC: 0.668241 cumulative IPC: 0.857138 (Simulation time: 3 hr 49 min 32 sec) 
Heartbeat CPU 0 instructions: 77000003 cycles: 84313789 heartbeat IPC: 0.669438 cumulative IPC: 0.853566 (Simulation time: 3 hr 52 min 18 sec) 
Heartbeat CPU 0 instructions: 78000001 cycles: 85808480 heartbeat IPC: 0.669033 cumulative IPC: 0.850117 (Simulation time: 3 hr 55 min 38 sec) 
Heartbeat CPU 0 instructions: 79000000 cycles: 87304914 heartbeat IPC: 0.668255 cumulative IPC: 0.846777 (Simulation time: 3 hr 58 min 36 sec) 
Heartbeat CPU 0 instructions: 80000000 cycles: 88795296 heartbeat IPC: 0.670969 cumulative IPC: 0.84362 (Simulation time: 4 hr 1 min 12 sec) 
Heartbeat CPU 0 instructions: 81000001 cycles: 90279230 heartbeat IPC: 0.673885 cumulative IPC: 0.840638 (Simulation time: 4 hr 3 min 37 sec) 
Heartbeat CPU 0 instructions: 82000000 cycles: 91762194 heartbeat IPC: 0.674325 cumulative IPC: 0.837768 (Simulation time: 4 hr 5 min 59 sec) 
Heartbeat CPU 0 instructions: 83000000 cycles: 93245544 heartbeat IPC: 0.67415 cumulative IPC: 0.834992 (Simulation time: 4 hr 8 min 20 sec) 
Heartbeat CPU 0 instructions: 84000000 cycles: 94740334 heartbeat IPC: 0.66899 cumulative IPC: 0.832201 (Simulation time: 4 hr 10 min 36 sec) 
Heartbeat CPU 0 instructions: 85000000 cycles: 96235215 heartbeat IPC: 0.66895 cumulative IPC: 0.829502 (Simulation time: 4 hr 13 min 8 sec) 
Heartbeat CPU 0 instructions: 86000000 cycles: 97729011 heartbeat IPC: 0.669435 cumulative IPC: 0.8269 (Simulation time: 4 hr 15 min 38 sec) 
Heartbeat CPU 0 instructions: 87000000 cycles: 99223862 heartbeat IPC: 0.668963 cumulative IPC: 0.824373 (Simulation time: 4 hr 17 min 53 sec) 
Heartbeat CPU 0 instructions: 88000000 cycles: 100719077 heartbeat IPC: 0.6688 cumulative IPC: 0.821922 (Simulation time: 4 hr 20 min 5 sec) 
Heartbeat CPU 0 instructions: 89000002 cycles: 102214943 heartbeat IPC: 0.66851 cumulative IPC: 0.819541 (Simulation time: 4 hr 22 min 11 sec) 
Heartbeat CPU 0 instructions: 90000000 cycles: 103699278 heartbeat IPC: 0.673701 cumulative IPC: 0.817329 (Simulation time: 4 hr 24 min 10 sec) 
Heartbeat CPU 0 instructions: 91000000 cycles: 105183342 heartbeat IPC: 0.673825 cumulative IPC: 0.815186 (Simulation time: 4 hr 26 min 23 sec) 
Heartbeat CPU 0 instructions: 92000000 cycles: 106667182 heartbeat IPC: 0.673927 cumulative IPC: 0.813108 (Simulation time: 4 hr 28 min 18 sec) 
Heartbeat CPU 0 instructions: 93000000 cycles: 108156923 heartbeat IPC: 0.671258 cumulative IPC: 0.811043 (Simulation time: 4 hr 30 min 12 sec) 
Heartbeat CPU 0 instructions: 94000003 cycles: 109650780 heartbeat IPC: 0.66941 cumulative IPC: 0.809005 (Simulation time: 4 hr 32 min 4 sec) 
Heartbeat CPU 0 instructions: 95000000 cycles: 111146575 heartbeat IPC: 0.668539 cumulative IPC: 0.80701 (Simulation time: 4 hr 33 min 45 sec) 
Heartbeat CPU 0 instructions: 96000000 cycles: 112640528 heartbeat IPC: 0.669365 cumulative IPC: 0.805085 (Simulation time: 4 hr 35 min 27 sec) 
Heartbeat CPU 0 instructions: 97000001 cycles: 114136333 heartbeat IPC: 0.668537 cumulative IPC: 0.803199 (Simulation time: 4 hr 36 min 58 sec) 
Heartbeat CPU 0 instructions: 98000003 cycles: 115631690 heartbeat IPC: 0.668738 cumulative IPC: 0.801368 (Simulation time: 4 hr 38 min 29 sec) 
Heartbeat CPU 0 instructions: 99000000 cycles: 117120791 heartbeat IPC: 0.671544 cumulative IPC: 0.799631 (Simulation time: 4 hr 39 min 49 sec) 
Heartbeat CPU 0 instructions: 100000000 cycles: 118604182 heartbeat IPC: 0.674131 cumulative IPC: 0.797981 (Simulation time: 4 hr 41 min 12 sec) 
Heartbeat CPU 0 instructions: 101000000 cycles: 120087392 heartbeat IPC: 0.674213 cumulative IPC: 0.796374 (Simulation time: 4 hr 42 min 30 sec) 
Heartbeat CPU 0 instructions: 102000003 cycles: 121570976 heartbeat IPC: 0.674045 cumulative IPC: 0.794806 (Simulation time: 4 hr 43 min 43 sec) 
Heartbeat CPU 0 instructions: 103000003 cycles: 123067234 heartbeat IPC: 0.668334 cumulative IPC: 0.793192 (Simulation time: 4 hr 44 min 53 sec) 
Heartbeat CPU 0 instructions: 104000000 cycles: 124561773 heartbeat IPC: 0.669101 cumulative IPC: 0.791631 (Simulation time: 4 hr 45 min 59 sec) 
Heartbeat CPU 0 instructions: 105000000 cycles: 126056669 heartbeat IPC: 0.668943 cumulative IPC: 0.790105 (Simulation time: 4 hr 46 min 55 sec) 
Heartbeat CPU 0 instructions: 106000000 cycles: 127551729 heartbeat IPC: 0.668869 cumulative IPC: 0.788616 (Simulation time: 4 hr 47 min 59 sec) 
Heartbeat CPU 0 instructions: 107000000 cycles: 129047582 heartbeat IPC: 0.668515 cumulative IPC: 0.787158 (Simulation time: 4 hr 49 min 1 sec) 
Heartbeat CPU 0 instructions: 108000000 cycles: 130543161 heartbeat IPC: 0.668637 cumulative IPC: 0.785737 (Simulation time: 4 hr 49 min 52 sec) 
Heartbeat CPU 0 instructions: 109000003 cycles: 132026024 heartbeat IPC: 0.674373 cumulative IPC: 0.784429 (Simulation time: 4 hr 50 min 46 sec) 
Heartbeat CPU 0 instructions: 110000001 cycles: 133509230 heartbeat IPC: 0.674214 cumulative IPC: 0.783148 (Simulation time: 4 hr 51 min 32 sec) 
Finished CPU 0 instructions: 100000000 cycles: 127689713 cummulative IPC: 0.783148 (Simulation time: 4 hr 51 min 32 sec) 

ChampSim completed all CPUs

Region of Interest Statistics

CPU 0 cummulative IPC: 0.783148 instructions: 100000000 cycles: 127689713
LLC TOTAL     ACCESS:    1495475  HIT:     282985  MISS:    1212490
LLC LOAD      ACCESS:      88965  HIT:      25278  MISS:      63687
LLC RFO       ACCESS:     219210  HIT:      21953  MISS:     197257
LLC PREFETCH  ACCESS:     751154  HIT:     111322  MISS:     639832
LLC WRITEBACK ACCESS:     436146  HIT:     124432  MISS:     311714
