
*** ChampSim Multicore Out-of-Order Simulator ***

Warmup Instructions: 10000000
Simulation Instructions: 100000000
Configuration: 2
Number of CPUs: 1
LLC sets: 2048
LLC ways: 16
Off-chip DRAM Channels: 1 Width: 64-bit Data Rate: 1600 MT/s

CPU 0 runs /datasets/cs240c-wi22-a00-public/data/Assignment2-gz/soplex_217B.trace.gz
CPU 0 L1D next line prefetcher
CPU 0 L2C IP-based stride prefetcher
config 2, num_core 1, llc_sets 2048
Heartbeat CPU 0 instructions: 1000002 cycles: 441582 heartbeat IPC: 2.26459 cumulative IPC: 2.26459 (Simulation time: 0 hr 2 min 41 sec) 
Heartbeat CPU 0 instructions: 2000003 cycles: 800838 heartbeat IPC: 2.78353 cumulative IPC: 2.49739 (Simulation time: 0 hr 4 min 45 sec) 
Heartbeat CPU 0 instructions: 3000002 cycles: 1245795 heartbeat IPC: 2.24741 cumulative IPC: 2.4081 (Simulation time: 0 hr 7 min 0 sec) 
Heartbeat CPU 0 instructions: 4000000 cycles: 1673927 heartbeat IPC: 2.33572 cumulative IPC: 2.38959 (Simulation time: 0 hr 9 min 14 sec) 
Heartbeat CPU 0 instructions: 5000001 cycles: 2057975 heartbeat IPC: 2.60384 cumulative IPC: 2.42957 (Simulation time: 0 hr 10 min 55 sec) 
Heartbeat CPU 0 instructions: 6000000 cycles: 2432365 heartbeat IPC: 2.67101 cumulative IPC: 2.46674 (Simulation time: 0 hr 12 min 40 sec) 
Heartbeat CPU 0 instructions: 7000003 cycles: 2962002 heartbeat IPC: 1.88809 cumulative IPC: 2.36327 (Simulation time: 0 hr 14 min 27 sec) 
Heartbeat CPU 0 instructions: 8000000 cycles: 3409101 heartbeat IPC: 2.23663 cumulative IPC: 2.34666 (Simulation time: 0 hr 16 min 58 sec) 
Heartbeat CPU 0 instructions: 9000001 cycles: 3833595 heartbeat IPC: 2.35575 cumulative IPC: 2.34767 (Simulation time: 0 hr 19 min 19 sec) 
Heartbeat CPU 0 instructions: 10000000 cycles: 4246168 heartbeat IPC: 2.42381 cumulative IPC: 2.35506 (Simulation time: 0 hr 21 min 32 sec) 

Warmup complete CPU 0 instructions: 10000004 cycles: 4246169 (Simulation time: 0 hr 21 min 32 sec) 

Heartbeat CPU 0 instructions: 11000002 cycles: 7913905 heartbeat IPC: 0.272648 cumulative IPC: 0.272647 (Simulation time: 0 hr 24 min 55 sec) 
Heartbeat CPU 0 instructions: 12000000 cycles: 10531724 heartbeat IPC: 0.381997 cumulative IPC: 0.318189 (Simulation time: 0 hr 27 min 20 sec) 
Heartbeat CPU 0 instructions: 13000000 cycles: 11897378 heartbeat IPC: 0.73225 cumulative IPC: 0.392094 (Simulation time: 0 hr 29 min 6 sec) 
Heartbeat CPU 0 instructions: 14000000 cycles: 14532849 heartbeat IPC: 0.379439 cumulative IPC: 0.388852 (Simulation time: 0 hr 31 min 32 sec) 
Heartbeat CPU 0 instructions: 15000000 cycles: 17180623 heartbeat IPC: 0.377676 cumulative IPC: 0.386564 (Simulation time: 0 hr 34 min 12 sec) 
Heartbeat CPU 0 instructions: 16000000 cycles: 20831059 heartbeat IPC: 0.27394 cumulative IPC: 0.361775 (Simulation time: 0 hr 37 min 15 sec) 
Heartbeat CPU 0 instructions: 17000002 cycles: 23193614 heartbeat IPC: 0.423271 cumulative IPC: 0.369443 (Simulation time: 0 hr 39 min 26 sec) 
Heartbeat CPU 0 instructions: 18000003 cycles: 25726350 heartbeat IPC: 0.39483 cumulative IPC: 0.372436 (Simulation time: 0 hr 42 min 0 sec) 
Heartbeat CPU 0 instructions: 19000000 cycles: 29331425 heartbeat IPC: 0.277386 cumulative IPC: 0.358776 (Simulation time: 0 hr 44 min 59 sec) 
Heartbeat CPU 0 instructions: 20000000 cycles: 30706080 heartbeat IPC: 0.727455 cumulative IPC: 0.37793 (Simulation time: 0 hr 46 min 37 sec) 
Heartbeat CPU 0 instructions: 21000000 cycles: 32167894 heartbeat IPC: 0.684082 cumulative IPC: 0.393958 (Simulation time: 0 hr 48 min 15 sec) 
Heartbeat CPU 0 instructions: 22000001 cycles: 35330760 heartbeat IPC: 0.316169 cumulative IPC: 0.386043 (Simulation time: 0 hr 50 min 43 sec) 
Heartbeat CPU 0 instructions: 23000003 cycles: 39069086 heartbeat IPC: 0.2675 cumulative IPC: 0.373317 (Simulation time: 0 hr 53 min 38 sec) 
Heartbeat CPU 0 instructions: 24000000 cycles: 42142606 heartbeat IPC: 0.325359 cumulative IPC: 0.369428 (Simulation time: 0 hr 56 min 20 sec) 
Heartbeat CPU 0 instructions: 25000001 cycles: 43664594 heartbeat IPC: 0.657036 cumulative IPC: 0.380533 (Simulation time: 0 hr 58 min 36 sec) 
Heartbeat CPU 0 instructions: 26000003 cycles: 47477768 heartbeat IPC: 0.262249 cumulative IPC: 0.3701 (Simulation time: 1 hr 1 min 41 sec) 
Heartbeat CPU 0 instructions: 27000002 cycles: 49958951 heartbeat IPC: 0.403033 cumulative IPC: 0.371887 (Simulation time: 1 hr 3 min 50 sec) 
Heartbeat CPU 0 instructions: 28000000 cycles: 51317319 heartbeat IPC: 0.736176 cumulative IPC: 0.3824 (Simulation time: 1 hr 5 min 35 sec) 
Heartbeat CPU 0 instructions: 29000002 cycles: 54019389 heartbeat IPC: 0.370087 cumulative IPC: 0.381731 (Simulation time: 1 hr 7 min 34 sec) 
Heartbeat CPU 0 instructions: 30000002 cycles: 56734586 heartbeat IPC: 0.368297 cumulative IPC: 0.381036 (Simulation time: 1 hr 10 min 17 sec) 
Heartbeat CPU 0 instructions: 31000000 cycles: 59922273 heartbeat IPC: 0.313706 cumulative IPC: 0.377182 (Simulation time: 1 hr 12 min 41 sec) 
Heartbeat CPU 0 instructions: 32000000 cycles: 61664192 heartbeat IPC: 0.57408 cumulative IPC: 0.383155 (Simulation time: 1 hr 14 min 56 sec) 
Heartbeat CPU 0 instructions: 33000001 cycles: 65141243 heartbeat IPC: 0.2876 cumulative IPC: 0.377699 (Simulation time: 1 hr 17 min 45 sec) 
Heartbeat CPU 0 instructions: 34000000 cycles: 68036770 heartbeat IPC: 0.34536 cumulative IPC: 0.376231 (Simulation time: 1 hr 19 min 47 sec) 
Heartbeat CPU 0 instructions: 35000002 cycles: 69409840 heartbeat IPC: 0.728296 cumulative IPC: 0.383649 (Simulation time: 1 hr 21 min 12 sec) 
Heartbeat CPU 0 instructions: 36000000 cycles: 71668184 heartbeat IPC: 0.442801 cumulative IPC: 0.385631 (Simulation time: 1 hr 23 min 2 sec) 
Heartbeat CPU 0 instructions: 37000002 cycles: 74231214 heartbeat IPC: 0.390164 cumulative IPC: 0.385797 (Simulation time: 1 hr 25 min 13 sec) 
Heartbeat CPU 0 instructions: 38000000 cycles: 77815573 heartbeat IPC: 0.278989 cumulative IPC: 0.380593 (Simulation time: 1 hr 28 min 11 sec) 
Heartbeat CPU 0 instructions: 39000001 cycles: 79908330 heartbeat IPC: 0.477839 cumulative IPC: 0.383283 (Simulation time: 1 hr 30 min 18 sec) 
Heartbeat CPU 0 instructions: 40000000 cycles: 83011362 heartbeat IPC: 0.322265 cumulative IPC: 0.380879 (Simulation time: 1 hr 33 min 47 sec) 
Heartbeat CPU 0 instructions: 41000000 cycles: 86141766 heartbeat IPC: 0.319448 cumulative IPC: 0.378531 (Simulation time: 1 hr 37 min 16 sec) 
Heartbeat CPU 0 instructions: 42000002 cycles: 87520918 heartbeat IPC: 0.725085 cumulative IPC: 0.38427 (Simulation time: 1 hr 39 min 37 sec) 
Heartbeat CPU 0 instructions: 43000001 cycles: 89337301 heartbeat IPC: 0.550544 cumulative IPC: 0.387819 (Simulation time: 1 hr 42 min 29 sec) 
Heartbeat CPU 0 instructions: 44000000 cycles: 92068263 heartbeat IPC: 0.366171 cumulative IPC: 0.387146 (Simulation time: 1 hr 45 min 55 sec) 
Heartbeat CPU 0 instructions: 45000003 cycles: 95814107 heartbeat IPC: 0.266963 cumulative IPC: 0.38223 (Simulation time: 1 hr 49 min 49 sec) 
Heartbeat CPU 0 instructions: 46000000 cycles: 98564770 heartbeat IPC: 0.363548 cumulative IPC: 0.381685 (Simulation time: 1 hr 53 min 27 sec) 
Heartbeat CPU 0 instructions: 47000001 cycles: 100280764 heartbeat IPC: 0.582753 cumulative IPC: 0.385278 (Simulation time: 1 hr 56 min 31 sec) 
Heartbeat CPU 0 instructions: 48000000 cycles: 103824686 heartbeat IPC: 0.282173 cumulative IPC: 0.381608 (Simulation time: 1 hr 59 min 55 sec) 
Heartbeat CPU 0 instructions: 49000000 cycles: 106491765 heartbeat IPC: 0.374942 cumulative IPC: 0.381434 (Simulation time: 2 hr 2 min 54 sec) 
Heartbeat CPU 0 instructions: 50000001 cycles: 107840700 heartbeat IPC: 0.741326 cumulative IPC: 0.386121 (Simulation time: 2 hr 5 min 24 sec) 
Heartbeat CPU 0 instructions: 51000000 cycles: 110391419 heartbeat IPC: 0.392046 cumulative IPC: 0.386263 (Simulation time: 2 hr 8 min 10 sec) 
Heartbeat CPU 0 instructions: 52000000 cycles: 113031788 heartbeat IPC: 0.378735 cumulative IPC: 0.38608 (Simulation time: 2 hr 11 min 26 sec) 
Heartbeat CPU 0 instructions: 53000000 cycles: 116352413 heartbeat IPC: 0.301148 cumulative IPC: 0.383565 (Simulation time: 2 hr 14 min 33 sec) 
Heartbeat CPU 0 instructions: 54000000 cycles: 118274452 heartbeat IPC: 0.520281 cumulative IPC: 0.385869 (Simulation time: 2 hr 17 min 28 sec) 
Heartbeat CPU 0 instructions: 55000000 cycles: 121577214 heartbeat IPC: 0.302777 cumulative IPC: 0.38353 (Simulation time: 2 hr 20 min 46 sec) 
Heartbeat CPU 0 instructions: 56000000 cycles: 124504569 heartbeat IPC: 0.341605 cumulative IPC: 0.38251 (Simulation time: 2 hr 24 min 7 sec) 
Heartbeat CPU 0 instructions: 57000003 cycles: 125870533 heartbeat IPC: 0.732086 cumulative IPC: 0.386436 (Simulation time: 2 hr 26 min 37 sec) 
Heartbeat CPU 0 instructions: 58000000 cycles: 128063009 heartbeat IPC: 0.456104 cumulative IPC: 0.387669 (Simulation time: 2 hr 29 min 29 sec) 
Heartbeat CPU 0 instructions: 59000001 cycles: 130588361 heartbeat IPC: 0.395985 cumulative IPC: 0.387836 (Simulation time: 2 hr 32 min 37 sec) 
Heartbeat CPU 0 instructions: 60000000 cycles: 134110535 heartbeat IPC: 0.283915 cumulative IPC: 0.385017 (Simulation time: 2 hr 36 min 20 sec) 
Heartbeat CPU 0 instructions: 61000000 cycles: 136349650 heartbeat IPC: 0.446605 cumulative IPC: 0.386061 (Simulation time: 2 hr 39 min 24 sec) 
Heartbeat CPU 0 instructions: 62000001 cycles: 139040310 heartbeat IPC: 0.371656 cumulative IPC: 0.385773 (Simulation time: 2 hr 42 min 31 sec) 
Heartbeat CPU 0 instructions: 63000001 cycles: 142504603 heartbeat IPC: 0.288659 cumulative IPC: 0.38334 (Simulation time: 2 hr 45 min 49 sec) 
Heartbeat CPU 0 instructions: 64000000 cycles: 143880887 heartbeat IPC: 0.726593 cumulative IPC: 0.386723 (Simulation time: 2 hr 48 min 14 sec) 
Heartbeat CPU 0 instructions: 65000000 cycles: 145411771 heartbeat IPC: 0.653217 cumulative IPC: 0.389613 (Simulation time: 2 hr 50 min 59 sec) 
Heartbeat CPU 0 instructions: 66000002 cycles: 148476562 heartbeat IPC: 0.326287 cumulative IPC: 0.388268 (Simulation time: 2 hr 54 min 7 sec) 
Heartbeat CPU 0 instructions: 67000000 cycles: 151957322 heartbeat IPC: 0.287293 cumulative IPC: 0.385888 (Simulation time: 2 hr 57 min 33 sec) 
Heartbeat CPU 0 instructions: 68000000 cycles: 158135184 heartbeat IPC: 0.161868 cumulative IPC: 0.376895 (Simulation time: 3 hr 1 min 35 sec) 
Heartbeat CPU 0 instructions: 69000001 cycles: 162626267 heartbeat IPC: 0.222664 cumulative IPC: 0.372522 (Simulation time: 3 hr 5 min 20 sec) 
Heartbeat CPU 0 instructions: 70000002 cycles: 167070216 heartbeat IPC: 0.225025 cumulative IPC: 0.368496 (Simulation time: 3 hr 9 min 24 sec) 
Heartbeat CPU 0 instructions: 71000002 cycles: 172018143 heartbeat IPC: 0.202105 cumulative IPC: 0.363589 (Simulation time: 3 hr 13 min 20 sec) 
Heartbeat CPU 0 instructions: 72000000 cycles: 175656384 heartbeat IPC: 0.274858 cumulative IPC: 0.361705 (Simulation time: 3 hr 16 min 35 sec) 
Heartbeat CPU 0 instructions: 73000000 cycles: 178969902 heartbeat IPC: 0.301794 cumulative IPC: 0.360569 (Simulation time: 3 hr 19 min 44 sec) 
Heartbeat CPU 0 instructions: 74000000 cycles: 182762420 heartbeat IPC: 0.263677 cumulative IPC: 0.358511 (Simulation time: 3 hr 22 min 58 sec) 
Heartbeat CPU 0 instructions: 75000002 cycles: 186626179 heartbeat IPC: 0.258816 cumulative IPC: 0.356399 (Simulation time: 3 hr 26 min 9 sec) 
Heartbeat CPU 0 instructions: 76000000 cycles: 189219996 heartbeat IPC: 0.385531 cumulative IPC: 0.356807 (Simulation time: 3 hr 29 min 0 sec) 
Heartbeat CPU 0 instructions: 77000000 cycles: 192993908 heartbeat IPC: 0.264977 cumulative IPC: 0.354971 (Simulation time: 3 hr 32 min 16 sec) 
Heartbeat CPU 0 instructions: 78000002 cycles: 195279284 heartbeat IPC: 0.437566 cumulative IPC: 0.355959 (Simulation time: 3 hr 35 min 32 sec) 
Heartbeat CPU 0 instructions: 79000001 cycles: 197163954 heartbeat IPC: 0.530596 cumulative IPC: 0.357665 (Simulation time: 3 hr 38 min 46 sec) 
Heartbeat CPU 0 instructions: 80000000 cycles: 198340525 heartbeat IPC: 0.849927 cumulative IPC: 0.360649 (Simulation time: 3 hr 41 min 21 sec) 
Heartbeat CPU 0 instructions: 81000003 cycles: 200686457 heartbeat IPC: 0.426271 cumulative IPC: 0.361433 (Simulation time: 3 hr 44 min 19 sec) 
Heartbeat CPU 0 instructions: 82000001 cycles: 203833622 heartbeat IPC: 0.317746 cumulative IPC: 0.360744 (Simulation time: 3 hr 47 min 24 sec) 
Heartbeat CPU 0 instructions: 83000002 cycles: 206751517 heartbeat IPC: 0.342713 cumulative IPC: 0.360484 (Simulation time: 3 hr 50 min 19 sec) 
Heartbeat CPU 0 instructions: 84000000 cycles: 209087036 heartbeat IPC: 0.428169 cumulative IPC: 0.361256 (Simulation time: 3 hr 53 min 18 sec) 
Heartbeat CPU 0 instructions: 85000000 cycles: 210686915 heartbeat IPC: 0.625047 cumulative IPC: 0.3633 (Simulation time: 3 hr 56 min 4 sec) 
Heartbeat CPU 0 instructions: 86000000 cycles: 215220922 heartbeat IPC: 0.220555 cumulative IPC: 0.360233 (Simulation time: 4 hr 0 min 2 sec) 
Heartbeat CPU 0 instructions: 87000000 cycles: 218449650 heartbeat IPC: 0.30972 cumulative IPC: 0.359471 (Simulation time: 4 hr 3 min 3 sec) 
Heartbeat CPU 0 instructions: 88000000 cycles: 219932248 heartbeat IPC: 0.674492 cumulative IPC: 0.361637 (Simulation time: 4 hr 4 min 59 sec) 
Heartbeat CPU 0 instructions: 89000003 cycles: 222754094 heartbeat IPC: 0.354379 cumulative IPC: 0.361543 (Simulation time: 4 hr 7 min 34 sec) 
Heartbeat CPU 0 instructions: 90000002 cycles: 225457170 heartbeat IPC: 0.369949 cumulative IPC: 0.361646 (Simulation time: 4 hr 10 min 35 sec) 
Heartbeat CPU 0 instructions: 91000001 cycles: 228841623 heartbeat IPC: 0.295468 cumulative IPC: 0.360648 (Simulation time: 4 hr 13 min 27 sec) 
Heartbeat CPU 0 instructions: 92000000 cycles: 230710712 heartbeat IPC: 0.535019 cumulative IPC: 0.362088 (Simulation time: 4 hr 15 min 56 sec) 
Heartbeat CPU 0 instructions: 93000000 cycles: 234393095 heartbeat IPC: 0.271563 cumulative IPC: 0.360639 (Simulation time: 4 hr 18 min 40 sec) 
Heartbeat CPU 0 instructions: 94000001 cycles: 237409188 heartbeat IPC: 0.331555 cumulative IPC: 0.360263 (Simulation time: 4 hr 21 min 0 sec) 
Heartbeat CPU 0 instructions: 95000003 cycles: 238769811 heartbeat IPC: 0.734959 cumulative IPC: 0.362437 (Simulation time: 4 hr 22 min 44 sec) 
Heartbeat CPU 0 instructions: 96000000 cycles: 241045640 heartbeat IPC: 0.439399 cumulative IPC: 0.363176 (Simulation time: 4 hr 24 min 40 sec) 
Heartbeat CPU 0 instructions: 97000002 cycles: 243514649 heartbeat IPC: 0.405022 cumulative IPC: 0.363608 (Simulation time: 4 hr 26 min 59 sec) 
Heartbeat CPU 0 instructions: 98000003 cycles: 247625161 heartbeat IPC: 0.243279 cumulative IPC: 0.361576 (Simulation time: 4 hr 29 min 36 sec) 
Heartbeat CPU 0 instructions: 99000000 cycles: 250594204 heartbeat IPC: 0.336808 cumulative IPC: 0.361277 (Simulation time: 4 hr 31 min 40 sec) 
Heartbeat CPU 0 instructions: 100000000 cycles: 252467315 heartbeat IPC: 0.533871 cumulative IPC: 0.36258 (Simulation time: 4 hr 33 min 17 sec) 
Heartbeat CPU 0 instructions: 101000001 cycles: 256459529 heartbeat IPC: 0.250488 cumulative IPC: 0.360806 (Simulation time: 4 hr 35 min 24 sec) 
Heartbeat CPU 0 instructions: 102000000 cycles: 258104779 heartbeat IPC: 0.60781 cumulative IPC: 0.362406 (Simulation time: 4 hr 36 min 28 sec) 
Heartbeat CPU 0 instructions: 103000001 cycles: 259443399 heartbeat IPC: 0.747039 cumulative IPC: 0.364424 (Simulation time: 4 hr 37 min 25 sec) 
Heartbeat CPU 0 instructions: 104000000 cycles: 262708192 heartbeat IPC: 0.306298 cumulative IPC: 0.36369 (Simulation time: 4 hr 38 min 53 sec) 
Heartbeat CPU 0 instructions: 105000003 cycles: 265864653 heartbeat IPC: 0.316811 cumulative IPC: 0.363124 (Simulation time: 4 hr 40 min 27 sec) 
Heartbeat CPU 0 instructions: 106000002 cycles: 268510733 heartbeat IPC: 0.377917 cumulative IPC: 0.363272 (Simulation time: 4 hr 41 min 38 sec) 
Heartbeat CPU 0 instructions: 107000003 cycles: 270219435 heartbeat IPC: 0.58524 cumulative IPC: 0.364698 (Simulation time: 4 hr 42 min 51 sec) 
Heartbeat CPU 0 instructions: 108000000 cycles: 274146107 heartbeat IPC: 0.254668 cumulative IPC: 0.363098 (Simulation time: 4 hr 44 min 16 sec) 
Heartbeat CPU 0 instructions: 109000000 cycles: 276127746 heartbeat IPC: 0.504633 cumulative IPC: 0.364129 (Simulation time: 4 hr 44 min 59 sec) 
Heartbeat CPU 0 instructions: 110000002 cycles: 277481367 heartbeat IPC: 0.738761 cumulative IPC: 0.365985 (Simulation time: 4 hr 45 min 39 sec) 
Finished CPU 0 instructions: 100000000 cycles: 273235202 cummulative IPC: 0.365985 (Simulation time: 4 hr 45 min 39 sec) 

ChampSim completed all CPUs

Region of Interest Statistics

CPU 0 cummulative IPC: 0.365985 instructions: 100000000 cycles: 273235202
LLC TOTAL     ACCESS:    8719658  HIT:    3980506  MISS:    4739152
LLC LOAD      ACCESS:    2239920  HIT:     939410  MISS:    1300510
LLC RFO       ACCESS:     764887  HIT:     371540  MISS:     393347
LLC PREFETCH  ACCESS:    3554420  HIT:    1276290  MISS:    2278130
LLC WRITEBACK ACCESS:    2160431  HIT:    1393266  MISS:     767165
