
*** ChampSim Multicore Out-of-Order Simulator ***

Warmup Instructions: 10000000
Simulation Instructions: 100000000
Configuration: 2
Number of CPUs: 1
LLC sets: 2048
LLC ways: 16
Off-chip DRAM Channels: 1 Width: 64-bit Data Rate: 1600 MT/s

CPU 0 runs /datasets/cs240c-wi22-a00-public/data/Assignment2-gz/leslie3d_1186B.trace.gz
CPU 0 L1D next line prefetcher
CPU 0 L2C IP-based stride prefetcher
config 2, num_core 1, llc_sets 2048
Heartbeat CPU 0 instructions: 1000002 cycles: 564510 heartbeat IPC: 1.77145 cumulative IPC: 1.77145 (Simulation time: 0 hr 3 min 21 sec) 
Heartbeat CPU 0 instructions: 2000000 cycles: 1215849 heartbeat IPC: 1.5353 cumulative IPC: 1.64494 (Simulation time: 0 hr 7 min 21 sec) 
Heartbeat CPU 0 instructions: 3000000 cycles: 1867614 heartbeat IPC: 1.5343 cumulative IPC: 1.60633 (Simulation time: 0 hr 10 min 59 sec) 
Heartbeat CPU 0 instructions: 4000000 cycles: 2473204 heartbeat IPC: 1.65128 cumulative IPC: 1.61734 (Simulation time: 0 hr 14 min 1 sec) 
Heartbeat CPU 0 instructions: 5000000 cycles: 3083584 heartbeat IPC: 1.63832 cumulative IPC: 1.62149 (Simulation time: 0 hr 16 min 54 sec) 
Heartbeat CPU 0 instructions: 6000000 cycles: 3735383 heartbeat IPC: 1.53422 cumulative IPC: 1.60626 (Simulation time: 0 hr 20 min 8 sec) 
Heartbeat CPU 0 instructions: 7000001 cycles: 4386676 heartbeat IPC: 1.53541 cumulative IPC: 1.59574 (Simulation time: 0 hr 23 min 20 sec) 
Heartbeat CPU 0 instructions: 8000000 cycles: 4951317 heartbeat IPC: 1.77104 cumulative IPC: 1.61573 (Simulation time: 0 hr 26 min 30 sec) 
Heartbeat CPU 0 instructions: 9000003 cycles: 5602605 heartbeat IPC: 1.53542 cumulative IPC: 1.6064 (Simulation time: 0 hr 29 min 22 sec) 
Heartbeat CPU 0 instructions: 10000001 cycles: 6253759 heartbeat IPC: 1.53573 cumulative IPC: 1.59904 (Simulation time: 0 hr 32 min 27 sec) 

Warmup complete CPU 0 instructions: 10000001 cycles: 6253759 (Simulation time: 0 hr 32 min 27 sec) 

Heartbeat CPU 0 instructions: 11000001 cycles: 7640030 heartbeat IPC: 0.72136 cumulative IPC: 0.72136 (Simulation time: 0 hr 35 min 53 sec) 
Heartbeat CPU 0 instructions: 12000000 cycles: 8878062 heartbeat IPC: 0.807733 cumulative IPC: 0.762107 (Simulation time: 0 hr 39 min 5 sec) 
Heartbeat CPU 0 instructions: 13000000 cycles: 10106117 heartbeat IPC: 0.814296 cumulative IPC: 0.778744 (Simulation time: 0 hr 41 min 56 sec) 
Heartbeat CPU 0 instructions: 14000000 cycles: 11354489 heartbeat IPC: 0.801043 cumulative IPC: 0.784201 (Simulation time: 0 hr 45 min 6 sec) 
Heartbeat CPU 0 instructions: 15000002 cycles: 12749082 heartbeat IPC: 0.717057 cumulative IPC: 0.769785 (Simulation time: 0 hr 48 min 4 sec) 
Heartbeat CPU 0 instructions: 16000000 cycles: 13972710 heartbeat IPC: 0.81724 cumulative IPC: 0.777308 (Simulation time: 0 hr 50 min 57 sec) 
Heartbeat CPU 0 instructions: 17000000 cycles: 15190544 heartbeat IPC: 0.82113 cumulative IPC: 0.783279 (Simulation time: 0 hr 54 min 12 sec) 
Heartbeat CPU 0 instructions: 18000001 cycles: 16601240 heartbeat IPC: 0.708871 cumulative IPC: 0.773135 (Simulation time: 0 hr 57 min 3 sec) 
Heartbeat CPU 0 instructions: 19000003 cycles: 17844222 heartbeat IPC: 0.804518 cumulative IPC: 0.776501 (Simulation time: 1 hr 0 min 16 sec) 
Heartbeat CPU 0 instructions: 20000000 cycles: 19076899 heartbeat IPC: 0.81124 cumulative IPC: 0.77984 (Simulation time: 1 hr 3 min 21 sec) 
Heartbeat CPU 0 instructions: 21000003 cycles: 20381060 heartbeat IPC: 0.766779 cumulative IPC: 0.778634 (Simulation time: 1 hr 6 min 26 sec) 
Heartbeat CPU 0 instructions: 22000003 cycles: 21700005 heartbeat IPC: 0.758182 cumulative IPC: 0.776888 (Simulation time: 1 hr 9 min 31 sec) 
Heartbeat CPU 0 instructions: 23000002 cycles: 22914357 heartbeat IPC: 0.823484 cumulative IPC: 0.780284 (Simulation time: 1 hr 12 min 23 sec) 
Heartbeat CPU 0 instructions: 24000000 cycles: 24126027 heartbeat IPC: 0.825306 cumulative IPC: 0.783336 (Simulation time: 1 hr 15 min 37 sec) 
Heartbeat CPU 0 instructions: 25000000 cycles: 25538317 heartbeat IPC: 0.70807 cumulative IPC: 0.777824 (Simulation time: 1 hr 18 min 24 sec) 
Heartbeat CPU 0 instructions: 26000000 cycles: 26764147 heartbeat IPC: 0.815774 cumulative IPC: 0.780092 (Simulation time: 1 hr 21 min 14 sec) 
Heartbeat CPU 0 instructions: 27000000 cycles: 27987587 heartbeat IPC: 0.817367 cumulative IPC: 0.782191 (Simulation time: 1 hr 24 min 4 sec) 
Heartbeat CPU 0 instructions: 28000000 cycles: 29383302 heartbeat IPC: 0.716479 cumulative IPC: 0.778225 (Simulation time: 1 hr 27 min 13 sec) 
Heartbeat CPU 0 instructions: 29000002 cycles: 30618935 heartbeat IPC: 0.809303 cumulative IPC: 0.779801 (Simulation time: 1 hr 30 min 12 sec) 
Heartbeat CPU 0 instructions: 30000002 cycles: 31838082 heartbeat IPC: 0.820246 cumulative IPC: 0.781729 (Simulation time: 1 hr 33 min 13 sec) 
Heartbeat CPU 0 instructions: 31000002 cycles: 33093453 heartbeat IPC: 0.796577 cumulative IPC: 0.782423 (Simulation time: 1 hr 36 min 16 sec) 
Heartbeat CPU 0 instructions: 32000000 cycles: 34469051 heartbeat IPC: 0.726955 cumulative IPC: 0.779719 (Simulation time: 1 hr 39 min 20 sec) 
Heartbeat CPU 0 instructions: 33000000 cycles: 35677965 heartbeat IPC: 0.827189 cumulative IPC: 0.781669 (Simulation time: 1 hr 42 min 25 sec) 
Heartbeat CPU 0 instructions: 34000000 cycles: 36892524 heartbeat IPC: 0.823344 cumulative IPC: 0.783321 (Simulation time: 1 hr 45 min 17 sec) 
Heartbeat CPU 0 instructions: 35000000 cycles: 38307522 heartbeat IPC: 0.706715 cumulative IPC: 0.77994 (Simulation time: 1 hr 48 min 25 sec) 
Heartbeat CPU 0 instructions: 36000000 cycles: 39538963 heartbeat IPC: 0.812057 cumulative IPC: 0.781128 (Simulation time: 1 hr 51 min 27 sec) 
Heartbeat CPU 0 instructions: 37000003 cycles: 40772356 heartbeat IPC: 0.810774 cumulative IPC: 0.782187 (Simulation time: 1 hr 54 min 25 sec) 
Heartbeat CPU 0 instructions: 38000003 cycles: 42117138 heartbeat IPC: 0.743615 cumulative IPC: 0.780741 (Simulation time: 1 hr 57 min 26 sec) 
Heartbeat CPU 0 instructions: 39000001 cycles: 43410372 heartbeat IPC: 0.773254 cumulative IPC: 0.78048 (Simulation time: 2 hr 0 min 17 sec) 
Heartbeat CPU 0 instructions: 40000000 cycles: 44635000 heartbeat IPC: 0.816574 cumulative IPC: 0.781632 (Simulation time: 2 hr 3 min 21 sec) 
Heartbeat CPU 0 instructions: 41000000 cycles: 45836385 heartbeat IPC: 0.832373 cumulative IPC: 0.783172 (Simulation time: 2 hr 6 min 28 sec) 
Heartbeat CPU 0 instructions: 42000000 cycles: 47254872 heartbeat IPC: 0.704976 cumulative IPC: 0.780467 (Simulation time: 2 hr 9 min 24 sec) 
Heartbeat CPU 0 instructions: 43000002 cycles: 48457194 heartbeat IPC: 0.831726 cumulative IPC: 0.781927 (Simulation time: 2 hr 12 min 29 sec) 
Heartbeat CPU 0 instructions: 44000000 cycles: 49671994 heartbeat IPC: 0.823179 cumulative IPC: 0.783081 (Simulation time: 2 hr 15 min 24 sec) 
Heartbeat CPU 0 instructions: 45000001 cycles: 51124483 heartbeat IPC: 0.688474 cumulative IPC: 0.780019 (Simulation time: 2 hr 18 min 22 sec) 
Heartbeat CPU 0 instructions: 46000001 cycles: 53102046 heartbeat IPC: 0.505673 cumulative IPC: 0.768438 (Simulation time: 2 hr 21 min 19 sec) 
Heartbeat CPU 0 instructions: 47000002 cycles: 55039595 heartbeat IPC: 0.516116 cumulative IPC: 0.758417 (Simulation time: 2 hr 24 min 33 sec) 
Heartbeat CPU 0 instructions: 48000000 cycles: 57015551 heartbeat IPC: 0.506083 cumulative IPC: 0.748595 (Simulation time: 2 hr 27 min 48 sec) 
Heartbeat CPU 0 instructions: 49000002 cycles: 59005313 heartbeat IPC: 0.502574 cumulative IPC: 0.739315 (Simulation time: 2 hr 31 min 7 sec) 
Heartbeat CPU 0 instructions: 50000002 cycles: 60959490 heartbeat IPC: 0.511724 cumulative IPC: 0.731185 (Simulation time: 2 hr 34 min 19 sec) 
Heartbeat CPU 0 instructions: 51000002 cycles: 62931170 heartbeat IPC: 0.507182 cumulative IPC: 0.723392 (Simulation time: 2 hr 37 min 14 sec) 
Heartbeat CPU 0 instructions: 52000000 cycles: 64876958 heartbeat IPC: 0.51393 cumulative IPC: 0.71644 (Simulation time: 2 hr 40 min 38 sec) 
Heartbeat CPU 0 instructions: 53000003 cycles: 66849073 heartbeat IPC: 0.507071 cumulative IPC: 0.709626 (Simulation time: 2 hr 43 min 37 sec) 
Heartbeat CPU 0 instructions: 54000003 cycles: 68827855 heartbeat IPC: 0.505361 cumulative IPC: 0.703166 (Simulation time: 2 hr 46 min 57 sec) 
Heartbeat CPU 0 instructions: 55000001 cycles: 70903075 heartbeat IPC: 0.481876 cumulative IPC: 0.696063 (Simulation time: 2 hr 50 min 12 sec) 
Heartbeat CPU 0 instructions: 56000000 cycles: 73200764 heartbeat IPC: 0.435219 cumulative IPC: 0.687111 (Simulation time: 2 hr 53 min 27 sec) 
Heartbeat CPU 0 instructions: 57000003 cycles: 75456122 heartbeat IPC: 0.44339 cumulative IPC: 0.679168 (Simulation time: 2 hr 56 min 17 sec) 
Heartbeat CPU 0 instructions: 58000001 cycles: 77767251 heartbeat IPC: 0.432688 cumulative IPC: 0.671202 (Simulation time: 2 hr 59 min 18 sec) 
Heartbeat CPU 0 instructions: 59000003 cycles: 80027278 heartbeat IPC: 0.442473 cumulative IPC: 0.664195 (Simulation time: 3 hr 2 min 48 sec) 
Heartbeat CPU 0 instructions: 60000000 cycles: 82308083 heartbeat IPC: 0.43844 cumulative IPC: 0.657425 (Simulation time: 3 hr 6 min 17 sec) 
Heartbeat CPU 0 instructions: 61000003 cycles: 84588337 heartbeat IPC: 0.438549 cumulative IPC: 0.651053 (Simulation time: 3 hr 9 min 59 sec) 
Heartbeat CPU 0 instructions: 62000001 cycles: 86896177 heartbeat IPC: 0.433305 cumulative IPC: 0.644822 (Simulation time: 3 hr 13 min 37 sec) 
Heartbeat CPU 0 instructions: 63000000 cycles: 88843322 heartbeat IPC: 0.513572 cumulative IPC: 0.641728 (Simulation time: 3 hr 17 min 15 sec) 
Heartbeat CPU 0 instructions: 64000000 cycles: 90158965 heartbeat IPC: 0.760085 cumulative IPC: 0.643583 (Simulation time: 3 hr 20 min 34 sec) 
Heartbeat CPU 0 instructions: 65000000 cycles: 91524175 heartbeat IPC: 0.732488 cumulative IPC: 0.645007 (Simulation time: 3 hr 23 min 50 sec) 
Heartbeat CPU 0 instructions: 66000002 cycles: 92878445 heartbeat IPC: 0.738407 cumulative IPC: 0.646467 (Simulation time: 3 hr 26 min 55 sec) 
Heartbeat CPU 0 instructions: 67000001 cycles: 94222456 heartbeat IPC: 0.744041 cumulative IPC: 0.647958 (Simulation time: 3 hr 30 min 5 sec) 
Heartbeat CPU 0 instructions: 68000000 cycles: 95596492 heartbeat IPC: 0.727782 cumulative IPC: 0.649185 (Simulation time: 3 hr 32 min 55 sec) 
Heartbeat CPU 0 instructions: 69000000 cycles: 96922553 heartbeat IPC: 0.754113 cumulative IPC: 0.65072 (Simulation time: 3 hr 36 min 20 sec) 
Heartbeat CPU 0 instructions: 70000000 cycles: 98281857 heartbeat IPC: 0.735671 cumulative IPC: 0.651975 (Simulation time: 3 hr 39 min 34 sec) 
Heartbeat CPU 0 instructions: 71000000 cycles: 99597745 heartbeat IPC: 0.759943 cumulative IPC: 0.653497 (Simulation time: 3 hr 42 min 33 sec) 
Heartbeat CPU 0 instructions: 72000000 cycles: 100936718 heartbeat IPC: 0.746841 cumulative IPC: 0.654817 (Simulation time: 3 hr 45 min 14 sec) 
Heartbeat CPU 0 instructions: 73000000 cycles: 102283700 heartbeat IPC: 0.7424 cumulative IPC: 0.656045 (Simulation time: 3 hr 48 min 5 sec) 
Heartbeat CPU 0 instructions: 74000000 cycles: 103605355 heartbeat IPC: 0.756627 cumulative IPC: 0.657411 (Simulation time: 3 hr 50 min 54 sec) 
Heartbeat CPU 0 instructions: 75000003 cycles: 104977894 heartbeat IPC: 0.728579 cumulative IPC: 0.6584 (Simulation time: 3 hr 53 min 56 sec) 
Heartbeat CPU 0 instructions: 76000000 cycles: 106310941 heartbeat IPC: 0.750159 cumulative IPC: 0.659623 (Simulation time: 3 hr 56 min 50 sec) 
Heartbeat CPU 0 instructions: 77000000 cycles: 107690819 heartbeat IPC: 0.724702 cumulative IPC: 0.660508 (Simulation time: 3 hr 59 min 42 sec) 
Heartbeat CPU 0 instructions: 78000001 cycles: 109046912 heartbeat IPC: 0.737413 cumulative IPC: 0.661523 (Simulation time: 4 hr 2 min 28 sec) 
Heartbeat CPU 0 instructions: 79000002 cycles: 110408122 heartbeat IPC: 0.734641 cumulative IPC: 0.662478 (Simulation time: 4 hr 5 min 0 sec) 
Heartbeat CPU 0 instructions: 80000000 cycles: 111791079 heartbeat IPC: 0.723087 cumulative IPC: 0.663273 (Simulation time: 4 hr 7 min 35 sec) 
Heartbeat CPU 0 instructions: 81000000 cycles: 113135084 heartbeat IPC: 0.744045 cumulative IPC: 0.664288 (Simulation time: 4 hr 10 min 5 sec) 
Heartbeat CPU 0 instructions: 82000003 cycles: 114520583 heartbeat IPC: 0.721764 cumulative IPC: 0.665024 (Simulation time: 4 hr 12 min 32 sec) 
Heartbeat CPU 0 instructions: 83000001 cycles: 115877489 heartbeat IPC: 0.736969 cumulative IPC: 0.665914 (Simulation time: 4 hr 15 min 0 sec) 
Heartbeat CPU 0 instructions: 84000000 cycles: 117234138 heartbeat IPC: 0.73711 cumulative IPC: 0.666785 (Simulation time: 4 hr 17 min 19 sec) 
Heartbeat CPU 0 instructions: 85000001 cycles: 118572538 heartbeat IPC: 0.747162 cumulative IPC: 0.667742 (Simulation time: 4 hr 19 min 32 sec) 
Heartbeat CPU 0 instructions: 86000003 cycles: 119913614 heartbeat IPC: 0.745671 cumulative IPC: 0.668662 (Simulation time: 4 hr 21 min 43 sec) 
Heartbeat CPU 0 instructions: 87000001 cycles: 121263733 heartbeat IPC: 0.740674 cumulative IPC: 0.669507 (Simulation time: 4 hr 23 min 50 sec) 
Heartbeat CPU 0 instructions: 88000000 cycles: 122617967 heartbeat IPC: 0.738424 cumulative IPC: 0.670309 (Simulation time: 4 hr 26 min 4 sec) 
Heartbeat CPU 0 instructions: 89000001 cycles: 123980988 heartbeat IPC: 0.733665 cumulative IPC: 0.671043 (Simulation time: 4 hr 28 min 3 sec) 
Heartbeat CPU 0 instructions: 90000002 cycles: 125336764 heartbeat IPC: 0.737586 cumulative IPC: 0.6718 (Simulation time: 4 hr 30 min 1 sec) 
Heartbeat CPU 0 instructions: 91000000 cycles: 126697754 heartbeat IPC: 0.734758 cumulative IPC: 0.672512 (Simulation time: 4 hr 31 min 49 sec) 
Heartbeat CPU 0 instructions: 92000000 cycles: 128038263 heartbeat IPC: 0.745985 cumulative IPC: 0.67332 (Simulation time: 4 hr 33 min 31 sec) 
Heartbeat CPU 0 instructions: 93000001 cycles: 129410445 heartbeat IPC: 0.728767 cumulative IPC: 0.673938 (Simulation time: 4 hr 35 min 11 sec) 
Heartbeat CPU 0 instructions: 94000000 cycles: 130739471 heartbeat IPC: 0.75243 cumulative IPC: 0.674776 (Simulation time: 4 hr 36 min 44 sec) 
Heartbeat CPU 0 instructions: 95000003 cycles: 132070756 heartbeat IPC: 0.751156 cumulative IPC: 0.675584 (Simulation time: 4 hr 38 min 16 sec) 
Heartbeat CPU 0 instructions: 96000000 cycles: 133429352 heartbeat IPC: 0.736052 cumulative IPC: 0.67623 (Simulation time: 4 hr 39 min 40 sec) 
Heartbeat CPU 0 instructions: 97000001 cycles: 134761592 heartbeat IPC: 0.750616 cumulative IPC: 0.677002 (Simulation time: 4 hr 41 min 5 sec) 
Heartbeat CPU 0 instructions: 98000002 cycles: 136122797 heartbeat IPC: 0.734644 cumulative IPC: 0.677606 (Simulation time: 4 hr 42 min 19 sec) 
Heartbeat CPU 0 instructions: 99000000 cycles: 137460036 heartbeat IPC: 0.747808 cumulative IPC: 0.678321 (Simulation time: 4 hr 43 min 32 sec) 
Heartbeat CPU 0 instructions: 100000000 cycles: 138840976 heartbeat IPC: 0.724144 cumulative IPC: 0.678798 (Simulation time: 4 hr 44 min 41 sec) 
Heartbeat CPU 0 instructions: 101000000 cycles: 140194145 heartbeat IPC: 0.739006 cumulative IPC: 0.679407 (Simulation time: 4 hr 45 min 40 sec) 
Heartbeat CPU 0 instructions: 102000001 cycles: 141540009 heartbeat IPC: 0.743018 cumulative IPC: 0.68004 (Simulation time: 4 hr 46 min 44 sec) 
Heartbeat CPU 0 instructions: 103000000 cycles: 142910308 heartbeat IPC: 0.729767 cumulative IPC: 0.680538 (Simulation time: 4 hr 47 min 44 sec) 
Heartbeat CPU 0 instructions: 104000000 cycles: 144240113 heartbeat IPC: 0.75199 cumulative IPC: 0.681227 (Simulation time: 4 hr 48 min 42 sec) 
Heartbeat CPU 0 instructions: 105000001 cycles: 145621535 heartbeat IPC: 0.723893 cumulative IPC: 0.68165 (Simulation time: 4 hr 49 min 34 sec) 
Heartbeat CPU 0 instructions: 106000002 cycles: 146963856 heartbeat IPC: 0.744979 cumulative IPC: 0.682254 (Simulation time: 4 hr 50 min 26 sec) 
Heartbeat CPU 0 instructions: 107000000 cycles: 148318215 heartbeat IPC: 0.738355 cumulative IPC: 0.682789 (Simulation time: 4 hr 51 min 15 sec) 
Heartbeat CPU 0 instructions: 108000000 cycles: 149657555 heartbeat IPC: 0.746636 cumulative IPC: 0.683385 (Simulation time: 4 hr 51 min 54 sec) 
Heartbeat CPU 0 instructions: 109000003 cycles: 150994622 heartbeat IPC: 0.747908 cumulative IPC: 0.683981 (Simulation time: 4 hr 52 min 32 sec) 
Heartbeat CPU 0 instructions: 110000001 cycles: 152362921 heartbeat IPC: 0.730833 cumulative IPC: 0.68442 (Simulation time: 4 hr 53 min 7 sec) 
Finished CPU 0 instructions: 100000000 cycles: 146109162 cummulative IPC: 0.68442 (Simulation time: 4 hr 53 min 7 sec) 

ChampSim completed all CPUs

Region of Interest Statistics

CPU 0 cummulative IPC: 0.68442 instructions: 100000000 cycles: 146109162
LLC TOTAL     ACCESS:    3757611  HIT:     685583  MISS:    3072028
LLC LOAD      ACCESS:     401669  HIT:      67529  MISS:     334140
LLC RFO       ACCESS:     463720  HIT:     185249  MISS:     278471
LLC PREFETCH  ACCESS:    2143074  HIT:     187518  MISS:    1955556
LLC WRITEBACK ACCESS:     749148  HIT:     245287  MISS:     503861
