
*** ChampSim Multicore Out-of-Order Simulator ***

Warmup Instructions: 10000000
Simulation Instructions: 100000000
Configuration: 2
Number of CPUs: 1
LLC sets: 2048
LLC ways: 16
Off-chip DRAM Channels: 1 Width: 64-bit Data Rate: 1600 MT/s

CPU 0 runs /datasets/cs240c-wi22-a00-public/data/Assignment2-gz/perlbench_105B.trace.gz
CPU 0 L1D next line prefetcher
CPU 0 L2C IP-based stride prefetcher
config 2, num_core 1, llc_sets 2048
Heartbeat CPU 0 instructions: 1000000 cycles: 578016 heartbeat IPC: 1.73006 cumulative IPC: 1.73006 (Simulation time: 0 hr 2 min 5 sec) 
Heartbeat CPU 0 instructions: 2000001 cycles: 1164321 heartbeat IPC: 1.7056 cumulative IPC: 1.71774 (Simulation time: 0 hr 4 min 6 sec) 
Heartbeat CPU 0 instructions: 3000001 cycles: 1726557 heartbeat IPC: 1.77861 cumulative IPC: 1.73756 (Simulation time: 0 hr 6 min 6 sec) 
Heartbeat CPU 0 instructions: 4000000 cycles: 2305993 heartbeat IPC: 1.72581 cumulative IPC: 1.73461 (Simulation time: 0 hr 8 min 13 sec) 
Heartbeat CPU 0 instructions: 5000003 cycles: 2884260 heartbeat IPC: 1.72931 cumulative IPC: 1.73355 (Simulation time: 0 hr 10 min 12 sec) 
Heartbeat CPU 0 instructions: 6000003 cycles: 3447519 heartbeat IPC: 1.77538 cumulative IPC: 1.74038 (Simulation time: 0 hr 11 min 58 sec) 
Heartbeat CPU 0 instructions: 7000000 cycles: 4019987 heartbeat IPC: 1.74682 cumulative IPC: 1.7413 (Simulation time: 0 hr 13 min 54 sec) 
Heartbeat CPU 0 instructions: 8000000 cycles: 4598049 heartbeat IPC: 1.72992 cumulative IPC: 1.73987 (Simulation time: 0 hr 15 min 58 sec) 
Heartbeat CPU 0 instructions: 9000000 cycles: 5176571 heartbeat IPC: 1.72854 cumulative IPC: 1.7386 (Simulation time: 0 hr 17 min 58 sec) 
Heartbeat CPU 0 instructions: 10000002 cycles: 5745489 heartbeat IPC: 1.75773 cumulative IPC: 1.7405 (Simulation time: 0 hr 19 min 47 sec) 

Warmup complete CPU 0 instructions: 10000002 cycles: 5745489 (Simulation time: 0 hr 19 min 47 sec) 

Heartbeat CPU 0 instructions: 11000002 cycles: 8079760 heartbeat IPC: 0.428399 cumulative IPC: 0.428399 (Simulation time: 0 hr 22 min 28 sec) 
Heartbeat CPU 0 instructions: 12000000 cycles: 10435599 heartbeat IPC: 0.424476 cumulative IPC: 0.426429 (Simulation time: 0 hr 24 min 58 sec) 
Heartbeat CPU 0 instructions: 13000000 cycles: 12866632 heartbeat IPC: 0.411348 cumulative IPC: 0.42128 (Simulation time: 0 hr 27 min 50 sec) 
Heartbeat CPU 0 instructions: 14000000 cycles: 15244606 heartbeat IPC: 0.420526 cumulative IPC: 0.421092 (Simulation time: 0 hr 31 min 7 sec) 
Heartbeat CPU 0 instructions: 15000000 cycles: 17595618 heartbeat IPC: 0.425349 cumulative IPC: 0.421936 (Simulation time: 0 hr 34 min 28 sec) 
Heartbeat CPU 0 instructions: 16000000 cycles: 19976093 heartbeat IPC: 0.420084 cumulative IPC: 0.421626 (Simulation time: 0 hr 37 min 40 sec) 
Heartbeat CPU 0 instructions: 17000003 cycles: 22368505 heartbeat IPC: 0.417989 cumulative IPC: 0.421103 (Simulation time: 0 hr 40 min 46 sec) 
Heartbeat CPU 0 instructions: 18000000 cycles: 24612402 heartbeat IPC: 0.445652 cumulative IPC: 0.424023 (Simulation time: 0 hr 43 min 58 sec) 
Heartbeat CPU 0 instructions: 19000000 cycles: 27117282 heartbeat IPC: 0.399221 cumulative IPC: 0.421116 (Simulation time: 0 hr 47 min 11 sec) 
Heartbeat CPU 0 instructions: 20000000 cycles: 29620732 heartbeat IPC: 0.399449 cumulative IPC: 0.418844 (Simulation time: 0 hr 50 min 11 sec) 
Heartbeat CPU 0 instructions: 21000001 cycles: 32122235 heartbeat IPC: 0.39976 cumulative IPC: 0.417034 (Simulation time: 0 hr 53 min 26 sec) 
Heartbeat CPU 0 instructions: 22000001 cycles: 34618056 heartbeat IPC: 0.40067 cumulative IPC: 0.415619 (Simulation time: 0 hr 56 min 21 sec) 
Heartbeat CPU 0 instructions: 23000000 cycles: 37109945 heartbeat IPC: 0.401302 cumulative IPC: 0.414482 (Simulation time: 0 hr 59 min 20 sec) 
Heartbeat CPU 0 instructions: 24000000 cycles: 39592832 heartbeat IPC: 0.402757 cumulative IPC: 0.413622 (Simulation time: 1 hr 2 min 5 sec) 
Heartbeat CPU 0 instructions: 25000001 cycles: 42055416 heartbeat IPC: 0.406078 cumulative IPC: 0.41311 (Simulation time: 1 hr 5 min 5 sec) 
Heartbeat CPU 0 instructions: 26000001 cycles: 44327979 heartbeat IPC: 0.440032 cumulative IPC: 0.414696 (Simulation time: 1 hr 8 min 9 sec) 
Heartbeat CPU 0 instructions: 27000003 cycles: 46822809 heartbeat IPC: 0.40083 cumulative IPC: 0.413854 (Simulation time: 1 hr 11 min 14 sec) 
Heartbeat CPU 0 instructions: 28000000 cycles: 49326095 heartbeat IPC: 0.399474 cumulative IPC: 0.413028 (Simulation time: 1 hr 14 min 22 sec) 
Heartbeat CPU 0 instructions: 29000001 cycles: 51827756 heartbeat IPC: 0.399735 cumulative IPC: 0.412306 (Simulation time: 1 hr 17 min 12 sec) 
Heartbeat CPU 0 instructions: 30000001 cycles: 54325160 heartbeat IPC: 0.400416 cumulative IPC: 0.411695 (Simulation time: 1 hr 19 min 58 sec) 
Heartbeat CPU 0 instructions: 31000000 cycles: 56816976 heartbeat IPC: 0.401313 cumulative IPC: 0.411188 (Simulation time: 1 hr 22 min 39 sec) 
Heartbeat CPU 0 instructions: 32000000 cycles: 59302103 heartbeat IPC: 0.402394 cumulative IPC: 0.41078 (Simulation time: 1 hr 25 min 29 sec) 
Heartbeat CPU 0 instructions: 33000001 cycles: 61770175 heartbeat IPC: 0.405175 cumulative IPC: 0.410533 (Simulation time: 1 hr 28 min 12 sec) 
Heartbeat CPU 0 instructions: 34000002 cycles: 64180929 heartbeat IPC: 0.414808 cumulative IPC: 0.41071 (Simulation time: 1 hr 31 min 18 sec) 
Heartbeat CPU 0 instructions: 35000002 cycles: 66644254 heartbeat IPC: 0.405955 cumulative IPC: 0.410517 (Simulation time: 1 hr 34 min 15 sec) 
Heartbeat CPU 0 instructions: 36000000 cycles: 69272266 heartbeat IPC: 0.380515 cumulative IPC: 0.409276 (Simulation time: 1 hr 36 min 55 sec) 
Heartbeat CPU 0 instructions: 37000001 cycles: 72347723 heartbeat IPC: 0.325155 cumulative IPC: 0.405392 (Simulation time: 1 hr 40 min 28 sec) 
Heartbeat CPU 0 instructions: 38000000 cycles: 75151970 heartbeat IPC: 0.356602 cumulative IPC: 0.403421 (Simulation time: 1 hr 43 min 4 sec) 
Heartbeat CPU 0 instructions: 39000000 cycles: 78043936 heartbeat IPC: 0.345786 cumulative IPC: 0.401115 (Simulation time: 1 hr 45 min 56 sec) 
Heartbeat CPU 0 instructions: 40000000 cycles: 80781954 heartbeat IPC: 0.365228 cumulative IPC: 0.399806 (Simulation time: 1 hr 48 min 52 sec) 
Heartbeat CPU 0 instructions: 41000000 cycles: 83430256 heartbeat IPC: 0.3776 cumulative IPC: 0.399049 (Simulation time: 1 hr 51 min 44 sec) 
Heartbeat CPU 0 instructions: 42000002 cycles: 86066850 heartbeat IPC: 0.379278 cumulative IPC: 0.3984 (Simulation time: 1 hr 55 min 0 sec) 
Heartbeat CPU 0 instructions: 43000000 cycles: 88732296 heartbeat IPC: 0.375171 cumulative IPC: 0.397654 (Simulation time: 1 hr 58 min 32 sec) 
Heartbeat CPU 0 instructions: 44000000 cycles: 91352358 heartbeat IPC: 0.38167 cumulative IPC: 0.397164 (Simulation time: 2 hr 1 min 48 sec) 
Heartbeat CPU 0 instructions: 45000001 cycles: 93993001 heartbeat IPC: 0.378696 cumulative IPC: 0.396612 (Simulation time: 2 hr 4 min 53 sec) 
Heartbeat CPU 0 instructions: 46000003 cycles: 96608615 heartbeat IPC: 0.38232 cumulative IPC: 0.3962 (Simulation time: 2 hr 7 min 58 sec) 
Heartbeat CPU 0 instructions: 47000002 cycles: 99218888 heartbeat IPC: 0.383101 cumulative IPC: 0.395835 (Simulation time: 2 hr 10 min 49 sec) 
Heartbeat CPU 0 instructions: 48000000 cycles: 101811315 heartbeat IPC: 0.385738 cumulative IPC: 0.395562 (Simulation time: 2 hr 13 min 30 sec) 
Heartbeat CPU 0 instructions: 49000002 cycles: 104408090 heartbeat IPC: 0.385094 cumulative IPC: 0.395287 (Simulation time: 2 hr 16 min 6 sec) 
Heartbeat CPU 0 instructions: 50000002 cycles: 107010505 heartbeat IPC: 0.384258 cumulative IPC: 0.395003 (Simulation time: 2 hr 18 min 44 sec) 
Heartbeat CPU 0 instructions: 51000003 cycles: 109618790 heartbeat IPC: 0.383394 cumulative IPC: 0.394712 (Simulation time: 2 hr 21 min 21 sec) 
Heartbeat CPU 0 instructions: 52000000 cycles: 112206955 heartbeat IPC: 0.386373 cumulative IPC: 0.394509 (Simulation time: 2 hr 24 min 11 sec) 
Heartbeat CPU 0 instructions: 53000000 cycles: 114785209 heartbeat IPC: 0.387859 cumulative IPC: 0.394352 (Simulation time: 2 hr 27 min 4 sec) 
Heartbeat CPU 0 instructions: 54000000 cycles: 117402022 heartbeat IPC: 0.382144 cumulative IPC: 0.394066 (Simulation time: 2 hr 29 min 59 sec) 
Heartbeat CPU 0 instructions: 55000003 cycles: 119964527 heartbeat IPC: 0.390244 cumulative IPC: 0.39398 (Simulation time: 2 hr 33 min 23 sec) 
Heartbeat CPU 0 instructions: 56000000 cycles: 122365261 heartbeat IPC: 0.416538 cumulative IPC: 0.394444 (Simulation time: 2 hr 36 min 20 sec) 
Heartbeat CPU 0 instructions: 57000002 cycles: 124640545 heartbeat IPC: 0.439506 cumulative IPC: 0.395307 (Simulation time: 2 hr 39 min 10 sec) 
Heartbeat CPU 0 instructions: 58000001 cycles: 125983260 heartbeat IPC: 0.744759 cumulative IPC: 0.399209 (Simulation time: 2 hr 41 min 16 sec) 
Heartbeat CPU 0 instructions: 59000002 cycles: 128254236 heartbeat IPC: 0.44034 cumulative IPC: 0.399971 (Simulation time: 2 hr 44 min 4 sec) 
Heartbeat CPU 0 instructions: 60000000 cycles: 130603298 heartbeat IPC: 0.425701 cumulative IPC: 0.400456 (Simulation time: 2 hr 46 min 51 sec) 
Heartbeat CPU 0 instructions: 61000002 cycles: 133052788 heartbeat IPC: 0.408249 cumulative IPC: 0.400605 (Simulation time: 2 hr 50 min 30 sec) 
Heartbeat CPU 0 instructions: 62000000 cycles: 135419076 heartbeat IPC: 0.422602 cumulative IPC: 0.401007 (Simulation time: 2 hr 53 min 32 sec) 
Heartbeat CPU 0 instructions: 63000000 cycles: 137781778 heartbeat IPC: 0.423244 cumulative IPC: 0.401405 (Simulation time: 2 hr 56 min 38 sec) 
Heartbeat CPU 0 instructions: 64000000 cycles: 140201272 heartbeat IPC: 0.41331 cumulative IPC: 0.401619 (Simulation time: 2 hr 59 min 56 sec) 
Heartbeat CPU 0 instructions: 65000003 cycles: 142525984 heartbeat IPC: 0.430162 cumulative IPC: 0.402104 (Simulation time: 3 hr 3 min 8 sec) 
Heartbeat CPU 0 instructions: 66000002 cycles: 144869217 heartbeat IPC: 0.42676 cumulative IPC: 0.402519 (Simulation time: 3 hr 5 min 53 sec) 
Heartbeat CPU 0 instructions: 67000001 cycles: 147224692 heartbeat IPC: 0.424542 cumulative IPC: 0.402886 (Simulation time: 3 hr 8 min 50 sec) 
Heartbeat CPU 0 instructions: 68000000 cycles: 149672883 heartbeat IPC: 0.408464 cumulative IPC: 0.402981 (Simulation time: 3 hr 11 min 42 sec) 
Heartbeat CPU 0 instructions: 69000001 cycles: 152025350 heartbeat IPC: 0.425086 cumulative IPC: 0.403336 (Simulation time: 3 hr 14 min 34 sec) 
Heartbeat CPU 0 instructions: 70000000 cycles: 154441188 heartbeat IPC: 0.413935 cumulative IPC: 0.403509 (Simulation time: 3 hr 17 min 27 sec) 
Heartbeat CPU 0 instructions: 71000000 cycles: 156827662 heartbeat IPC: 0.419028 cumulative IPC: 0.403754 (Simulation time: 3 hr 20 min 40 sec) 
Heartbeat CPU 0 instructions: 72000000 cycles: 159156854 heartbeat IPC: 0.429333 cumulative IPC: 0.404142 (Simulation time: 3 hr 23 min 26 sec) 
Heartbeat CPU 0 instructions: 73000000 cycles: 161490579 heartbeat IPC: 0.428499 cumulative IPC: 0.404507 (Simulation time: 3 hr 26 min 45 sec) 
Heartbeat CPU 0 instructions: 74000002 cycles: 163876153 heartbeat IPC: 0.419187 cumulative IPC: 0.404729 (Simulation time: 3 hr 29 min 29 sec) 
Heartbeat CPU 0 instructions: 75000000 cycles: 166299602 heartbeat IPC: 0.412634 cumulative IPC: 0.404848 (Simulation time: 3 hr 32 min 39 sec) 
Heartbeat CPU 0 instructions: 76000000 cycles: 168659069 heartbeat IPC: 0.423825 cumulative IPC: 0.405123 (Simulation time: 3 hr 35 min 34 sec) 
Heartbeat CPU 0 instructions: 77000000 cycles: 171093564 heartbeat IPC: 0.410763 cumulative IPC: 0.405206 (Simulation time: 3 hr 38 min 34 sec) 
Heartbeat CPU 0 instructions: 78000002 cycles: 173459038 heartbeat IPC: 0.422749 cumulative IPC: 0.405453 (Simulation time: 3 hr 41 min 25 sec) 
Heartbeat CPU 0 instructions: 79000001 cycles: 175795520 heartbeat IPC: 0.427993 cumulative IPC: 0.405763 (Simulation time: 3 hr 44 min 6 sec) 
Heartbeat CPU 0 instructions: 80000000 cycles: 178127528 heartbeat IPC: 0.428815 cumulative IPC: 0.406075 (Simulation time: 3 hr 46 min 51 sec) 
Heartbeat CPU 0 instructions: 81000000 cycles: 180551212 heartbeat IPC: 0.412595 cumulative IPC: 0.406165 (Simulation time: 3 hr 49 min 34 sec) 
Heartbeat CPU 0 instructions: 82000000 cycles: 182914804 heartbeat IPC: 0.423085 cumulative IPC: 0.406391 (Simulation time: 3 hr 52 min 19 sec) 
Heartbeat CPU 0 instructions: 83000002 cycles: 185235546 heartbeat IPC: 0.430898 cumulative IPC: 0.406708 (Simulation time: 3 hr 55 min 9 sec) 
Heartbeat CPU 0 instructions: 84000000 cycles: 187658098 heartbeat IPC: 0.412787 cumulative IPC: 0.406789 (Simulation time: 3 hr 57 min 59 sec) 
Heartbeat CPU 0 instructions: 85000000 cycles: 190033020 heartbeat IPC: 0.421066 cumulative IPC: 0.406973 (Simulation time: 4 hr 0 min 47 sec) 
Heartbeat CPU 0 instructions: 86000000 cycles: 192382810 heartbeat IPC: 0.42557 cumulative IPC: 0.407207 (Simulation time: 4 hr 3 min 30 sec) 
Heartbeat CPU 0 instructions: 87000001 cycles: 194829129 heartbeat IPC: 0.408778 cumulative IPC: 0.407227 (Simulation time: 4 hr 6 min 8 sec) 
Heartbeat CPU 0 instructions: 88000000 cycles: 197194783 heartbeat IPC: 0.422716 cumulative IPC: 0.407419 (Simulation time: 4 hr 8 min 41 sec) 
Heartbeat CPU 0 instructions: 89000002 cycles: 199520118 heartbeat IPC: 0.430046 cumulative IPC: 0.40769 (Simulation time: 4 hr 11 min 7 sec) 
Heartbeat CPU 0 instructions: 90000002 cycles: 201883940 heartbeat IPC: 0.423044 cumulative IPC: 0.407875 (Simulation time: 4 hr 13 min 34 sec) 
Heartbeat CPU 0 instructions: 91000003 cycles: 204300503 heartbeat IPC: 0.413811 cumulative IPC: 0.407947 (Simulation time: 4 hr 16 min 8 sec) 
Heartbeat CPU 0 instructions: 92000000 cycles: 206660846 heartbeat IPC: 0.423666 cumulative IPC: 0.408132 (Simulation time: 4 hr 18 min 34 sec) 
Heartbeat CPU 0 instructions: 93000001 cycles: 209007771 heartbeat IPC: 0.42609 cumulative IPC: 0.408339 (Simulation time: 4 hr 21 min 5 sec) 
Heartbeat CPU 0 instructions: 94000002 cycles: 211460233 heartbeat IPC: 0.407754 cumulative IPC: 0.408332 (Simulation time: 4 hr 23 min 28 sec) 
Heartbeat CPU 0 instructions: 95000000 cycles: 213821250 heartbeat IPC: 0.423545 cumulative IPC: 0.408505 (Simulation time: 4 hr 25 min 54 sec) 
Heartbeat CPU 0 instructions: 96000000 cycles: 216144541 heartbeat IPC: 0.430424 cumulative IPC: 0.408747 (Simulation time: 4 hr 28 min 17 sec) 
Heartbeat CPU 0 instructions: 97000000 cycles: 218531371 heartbeat IPC: 0.418966 cumulative IPC: 0.408862 (Simulation time: 4 hr 30 min 25 sec) 
Heartbeat CPU 0 instructions: 98000001 cycles: 220931384 heartbeat IPC: 0.416665 cumulative IPC: 0.408949 (Simulation time: 4 hr 32 min 30 sec) 
Heartbeat CPU 0 instructions: 99000002 cycles: 223290343 heartbeat IPC: 0.423916 cumulative IPC: 0.409111 (Simulation time: 4 hr 34 min 26 sec) 
Heartbeat CPU 0 instructions: 100000000 cycles: 225646130 heartbeat IPC: 0.424486 cumulative IPC: 0.409276 (Simulation time: 4 hr 36 min 21 sec) 
Heartbeat CPU 0 instructions: 101000000 cycles: 228061582 heartbeat IPC: 0.414001 cumulative IPC: 0.409327 (Simulation time: 4 hr 38 min 14 sec) 
Heartbeat CPU 0 instructions: 102000000 cycles: 230295086 heartbeat IPC: 0.447727 cumulative IPC: 0.409709 (Simulation time: 4 hr 40 min 2 sec) 
Heartbeat CPU 0 instructions: 103000001 cycles: 232799686 heartbeat IPC: 0.399266 cumulative IPC: 0.409594 (Simulation time: 4 hr 41 min 39 sec) 
Heartbeat CPU 0 instructions: 104000000 cycles: 235302206 heartbeat IPC: 0.399597 cumulative IPC: 0.409485 (Simulation time: 4 hr 42 min 48 sec) 
Heartbeat CPU 0 instructions: 105000000 cycles: 237802079 heartbeat IPC: 0.40002 cumulative IPC: 0.409383 (Simulation time: 4 hr 43 min 47 sec) 
Heartbeat CPU 0 instructions: 106000000 cycles: 240298284 heartbeat IPC: 0.400608 cumulative IPC: 0.40929 (Simulation time: 4 hr 44 min 50 sec) 
Heartbeat CPU 0 instructions: 107000001 cycles: 242788876 heartbeat IPC: 0.401511 cumulative IPC: 0.409208 (Simulation time: 4 hr 45 min 47 sec) 
Heartbeat CPU 0 instructions: 108000000 cycles: 245269282 heartbeat IPC: 0.403159 cumulative IPC: 0.409145 (Simulation time: 4 hr 46 min 45 sec) 
Heartbeat CPU 0 instructions: 109000002 cycles: 247725431 heartbeat IPC: 0.407142 cumulative IPC: 0.409125 (Simulation time: 4 hr 47 min 46 sec) 
Heartbeat CPU 0 instructions: 110000000 cycles: 250045633 heartbeat IPC: 0.430996 cumulative IPC: 0.409333 (Simulation time: 4 hr 48 min 44 sec) 
Finished CPU 0 instructions: 100000000 cycles: 244300170 cummulative IPC: 0.409332 (Simulation time: 4 hr 48 min 44 sec) 

ChampSim completed all CPUs

Region of Interest Statistics

CPU 0 cummulative IPC: 0.409332 instructions: 100000000 cycles: 244300170
LLC TOTAL     ACCESS:     156521  HIT:     118331  MISS:      38190
LLC LOAD      ACCESS:      70479  HIT:      54791  MISS:      15688
LLC RFO       ACCESS:      11261  HIT:       4736  MISS:       6525
LLC PREFETCH  ACCESS:      50054  HIT:      40768  MISS:       9286
LLC WRITEBACK ACCESS:      24727  HIT:      18036  MISS:       6691
