
*** ChampSim Multicore Out-of-Order Simulator ***

Warmup Instructions: 10000000
Simulation Instructions: 100000000
Configuration: 2
Number of CPUs: 1
LLC sets: 2048
LLC ways: 16
Off-chip DRAM Channels: 1 Width: 64-bit Data Rate: 1600 MT/s

CPU 0 runs /datasets/cs240c-wi22-a00-public/data/Assignment2-gz/leslie3d_94B.trace.gz
CPU 0 L1D next line prefetcher
CPU 0 L2C IP-based stride prefetcher
config 2, num_core 1, llc_sets 2048
Heartbeat CPU 0 instructions: 1000003 cycles: 597052 heartbeat IPC: 1.6749 cumulative IPC: 1.6749 (Simulation time: 0 hr 3 min 17 sec) 
Heartbeat CPU 0 instructions: 2000002 cycles: 1215952 heartbeat IPC: 1.61577 cumulative IPC: 1.6448 (Simulation time: 0 hr 6 min 10 sec) 
Heartbeat CPU 0 instructions: 3000002 cycles: 1867791 heartbeat IPC: 1.53412 cumulative IPC: 1.60618 (Simulation time: 0 hr 9 min 5 sec) 
Heartbeat CPU 0 instructions: 4000000 cycles: 2519084 heartbeat IPC: 1.5354 cumulative IPC: 1.58788 (Simulation time: 0 hr 12 min 10 sec) 
Heartbeat CPU 0 instructions: 5000002 cycles: 3084077 heartbeat IPC: 1.76994 cumulative IPC: 1.62123 (Simulation time: 0 hr 15 min 9 sec) 
Heartbeat CPU 0 instructions: 6000002 cycles: 3734813 heartbeat IPC: 1.53672 cumulative IPC: 1.60651 (Simulation time: 0 hr 18 min 14 sec) 
Heartbeat CPU 0 instructions: 7000000 cycles: 4385617 heartbeat IPC: 1.53656 cumulative IPC: 1.59613 (Simulation time: 0 hr 21 min 13 sec) 
Heartbeat CPU 0 instructions: 8000000 cycles: 4950645 heartbeat IPC: 1.76982 cumulative IPC: 1.61595 (Simulation time: 0 hr 24 min 11 sec) 
Heartbeat CPU 0 instructions: 9000000 cycles: 5601612 heartbeat IPC: 1.53618 cumulative IPC: 1.60668 (Simulation time: 0 hr 27 min 4 sec) 
Heartbeat CPU 0 instructions: 10000001 cycles: 6252903 heartbeat IPC: 1.53541 cumulative IPC: 1.59926 (Simulation time: 0 hr 30 min 9 sec) 

Warmup complete CPU 0 instructions: 10000001 cycles: 6252903 (Simulation time: 0 hr 30 min 9 sec) 

Heartbeat CPU 0 instructions: 11000000 cycles: 7533168 heartbeat IPC: 0.781088 cumulative IPC: 0.781088 (Simulation time: 0 hr 33 min 8 sec) 
Heartbeat CPU 0 instructions: 12000000 cycles: 9482820 heartbeat IPC: 0.512912 cumulative IPC: 0.619211 (Simulation time: 0 hr 36 min 10 sec) 
Heartbeat CPU 0 instructions: 13000000 cycles: 11399556 heartbeat IPC: 0.52172 cumulative IPC: 0.582903 (Simulation time: 0 hr 39 min 11 sec) 
Heartbeat CPU 0 instructions: 14000001 cycles: 13371339 heartbeat IPC: 0.507156 cumulative IPC: 0.561921 (Simulation time: 0 hr 42 min 14 sec) 
Heartbeat CPU 0 instructions: 15000001 cycles: 15363891 heartbeat IPC: 0.501869 cumulative IPC: 0.548788 (Simulation time: 0 hr 45 min 29 sec) 
Heartbeat CPU 0 instructions: 16000000 cycles: 17359573 heartbeat IPC: 0.501081 cumulative IPC: 0.540216 (Simulation time: 0 hr 48 min 22 sec) 
Heartbeat CPU 0 instructions: 17000000 cycles: 19305649 heartbeat IPC: 0.513855 cumulative IPC: 0.536286 (Simulation time: 0 hr 51 min 19 sec) 
Heartbeat CPU 0 instructions: 18000002 cycles: 21290921 heartbeat IPC: 0.50371 cumulative IPC: 0.531985 (Simulation time: 0 hr 54 min 24 sec) 
Heartbeat CPU 0 instructions: 19000001 cycles: 23304807 heartbeat IPC: 0.496552 cumulative IPC: 0.5278 (Simulation time: 0 hr 57 min 22 sec) 
Heartbeat CPU 0 instructions: 20000000 cycles: 25299026 heartbeat IPC: 0.501449 cumulative IPC: 0.525041 (Simulation time: 1 hr 0 min 52 sec) 
Heartbeat CPU 0 instructions: 21000002 cycles: 27265263 heartbeat IPC: 0.508587 cumulative IPC: 0.523501 (Simulation time: 1 hr 4 min 9 sec) 
Heartbeat CPU 0 instructions: 22000002 cycles: 29557078 heartbeat IPC: 0.436335 cumulative IPC: 0.514929 (Simulation time: 1 hr 7 min 15 sec) 
Heartbeat CPU 0 instructions: 23000000 cycles: 31824329 heartbeat IPC: 0.441062 cumulative IPC: 0.50838 (Simulation time: 1 hr 10 min 11 sec) 
Heartbeat CPU 0 instructions: 24000000 cycles: 34092248 heartbeat IPC: 0.440933 cumulative IPC: 0.502885 (Simulation time: 1 hr 13 min 10 sec) 
Heartbeat CPU 0 instructions: 25000000 cycles: 36371137 heartbeat IPC: 0.43881 cumulative IPC: 0.498037 (Simulation time: 1 hr 16 min 25 sec) 
Heartbeat CPU 0 instructions: 26000002 cycles: 38687940 heartbeat IPC: 0.43163 cumulative IPC: 0.493294 (Simulation time: 1 hr 19 min 36 sec) 
Heartbeat CPU 0 instructions: 27000001 cycles: 41037720 heartbeat IPC: 0.425571 cumulative IPC: 0.488719 (Simulation time: 1 hr 22 min 23 sec) 
Heartbeat CPU 0 instructions: 28000000 cycles: 43336725 heartbeat IPC: 0.43497 cumulative IPC: 0.485387 (Simulation time: 1 hr 25 min 21 sec) 
Heartbeat CPU 0 instructions: 29000000 cycles: 45557137 heartbeat IPC: 0.450367 cumulative IPC: 0.483408 (Simulation time: 1 hr 28 min 20 sec) 
Heartbeat CPU 0 instructions: 30000000 cycles: 46976683 heartbeat IPC: 0.704451 cumulative IPC: 0.491114 (Simulation time: 1 hr 30 min 57 sec) 
Heartbeat CPU 0 instructions: 31000002 cycles: 48326632 heartbeat IPC: 0.74077 cumulative IPC: 0.499124 (Simulation time: 1 hr 33 min 35 sec) 
Heartbeat CPU 0 instructions: 32000000 cycles: 49682818 heartbeat IPC: 0.737361 cumulative IPC: 0.506563 (Simulation time: 1 hr 35 min 59 sec) 
Heartbeat CPU 0 instructions: 33000001 cycles: 51020030 heartbeat IPC: 0.747825 cumulative IPC: 0.51377 (Simulation time: 1 hr 38 min 40 sec) 
Heartbeat CPU 0 instructions: 34000003 cycles: 52374797 heartbeat IPC: 0.738136 cumulative IPC: 0.52036 (Simulation time: 1 hr 41 min 9 sec) 
Heartbeat CPU 0 instructions: 35000000 cycles: 53713822 heartbeat IPC: 0.74681 cumulative IPC: 0.526749 (Simulation time: 1 hr 43 min 42 sec) 
Heartbeat CPU 0 instructions: 36000000 cycles: 55093873 heartbeat IPC: 0.724611 cumulative IPC: 0.53234 (Simulation time: 1 hr 46 min 11 sec) 
Heartbeat CPU 0 instructions: 37000003 cycles: 56449551 heartbeat IPC: 0.737641 cumulative IPC: 0.537885 (Simulation time: 1 hr 48 min 46 sec) 
Heartbeat CPU 0 instructions: 38000000 cycles: 57799094 heartbeat IPC: 0.740989 cumulative IPC: 0.543202 (Simulation time: 1 hr 51 min 8 sec) 
Heartbeat CPU 0 instructions: 39000001 cycles: 59148412 heartbeat IPC: 0.741116 cumulative IPC: 0.548251 (Simulation time: 1 hr 53 min 33 sec) 
Heartbeat CPU 0 instructions: 40000000 cycles: 60469316 heartbeat IPC: 0.757057 cumulative IPC: 0.553338 (Simulation time: 1 hr 56 min 11 sec) 
Heartbeat CPU 0 instructions: 41000002 cycles: 61836231 heartbeat IPC: 0.731576 cumulative IPC: 0.557721 (Simulation time: 1 hr 58 min 43 sec) 
Heartbeat CPU 0 instructions: 42000002 cycles: 63181754 heartbeat IPC: 0.743205 cumulative IPC: 0.562105 (Simulation time: 2 hr 1 min 28 sec) 
Heartbeat CPU 0 instructions: 43000002 cycles: 64559900 heartbeat IPC: 0.725613 cumulative IPC: 0.56597 (Simulation time: 2 hr 4 min 5 sec) 
Heartbeat CPU 0 instructions: 44000000 cycles: 65905182 heartbeat IPC: 0.743337 cumulative IPC: 0.56997 (Simulation time: 2 hr 6 min 37 sec) 
Heartbeat CPU 0 instructions: 45000003 cycles: 67276348 heartbeat IPC: 0.729308 cumulative IPC: 0.57355 (Simulation time: 2 hr 9 min 16 sec) 
Heartbeat CPU 0 instructions: 46000001 cycles: 68687562 heartbeat IPC: 0.708608 cumulative IPC: 0.576603 (Simulation time: 2 hr 12 min 53 sec) 
Heartbeat CPU 0 instructions: 47000000 cycles: 70036870 heartbeat IPC: 0.74112 cumulative IPC: 0.580083 (Simulation time: 2 hr 16 min 52 sec) 
Heartbeat CPU 0 instructions: 48000000 cycles: 71429365 heartbeat IPC: 0.718135 cumulative IPC: 0.583033 (Simulation time: 2 hr 21 min 13 sec) 
Heartbeat CPU 0 instructions: 49000001 cycles: 72775890 heartbeat IPC: 0.742653 cumulative IPC: 0.586264 (Simulation time: 2 hr 25 min 35 sec) 
Heartbeat CPU 0 instructions: 50000001 cycles: 74146381 heartbeat IPC: 0.729666 cumulative IPC: 0.589158 (Simulation time: 2 hr 29 min 42 sec) 
Heartbeat CPU 0 instructions: 51000003 cycles: 75487860 heartbeat IPC: 0.745447 cumulative IPC: 0.592186 (Simulation time: 2 hr 33 min 39 sec) 
Heartbeat CPU 0 instructions: 52000000 cycles: 76815252 heartbeat IPC: 0.753355 cumulative IPC: 0.595218 (Simulation time: 2 hr 37 min 37 sec) 
Heartbeat CPU 0 instructions: 53000002 cycles: 78196558 heartbeat IPC: 0.723954 cumulative IPC: 0.59769 (Simulation time: 2 hr 41 min 18 sec) 
Heartbeat CPU 0 instructions: 54000001 cycles: 79530072 heartbeat IPC: 0.749898 cumulative IPC: 0.60046 (Simulation time: 2 hr 45 min 0 sec) 
Heartbeat CPU 0 instructions: 55000000 cycles: 80911438 heartbeat IPC: 0.72392 cumulative IPC: 0.602744 (Simulation time: 2 hr 48 min 41 sec) 
Heartbeat CPU 0 instructions: 56000000 cycles: 82268686 heartbeat IPC: 0.736785 cumulative IPC: 0.605137 (Simulation time: 2 hr 51 min 40 sec) 
Heartbeat CPU 0 instructions: 57000000 cycles: 83637495 heartbeat IPC: 0.730562 cumulative IPC: 0.607356 (Simulation time: 2 hr 54 min 19 sec) 
Heartbeat CPU 0 instructions: 58000001 cycles: 84988759 heartbeat IPC: 0.740049 cumulative IPC: 0.609633 (Simulation time: 2 hr 57 min 1 sec) 
Heartbeat CPU 0 instructions: 59000003 cycles: 86305466 heartbeat IPC: 0.759472 cumulative IPC: 0.612098 (Simulation time: 2 hr 59 min 36 sec) 
Heartbeat CPU 0 instructions: 60000000 cycles: 87668486 heartbeat IPC: 0.733663 cumulative IPC: 0.614133 (Simulation time: 3 hr 2 min 24 sec) 
Heartbeat CPU 0 instructions: 61000001 cycles: 89006128 heartbeat IPC: 0.747585 cumulative IPC: 0.61629 (Simulation time: 3 hr 5 min 39 sec) 
Heartbeat CPU 0 instructions: 62000000 cycles: 90355795 heartbeat IPC: 0.740923 cumulative IPC: 0.61829 (Simulation time: 3 hr 8 min 50 sec) 
Heartbeat CPU 0 instructions: 63000000 cycles: 91692052 heartbeat IPC: 0.748359 cumulative IPC: 0.620324 (Simulation time: 3 hr 12 min 5 sec) 
Heartbeat CPU 0 instructions: 64000000 cycles: 93044991 heartbeat IPC: 0.739132 cumulative IPC: 0.622177 (Simulation time: 3 hr 15 min 15 sec) 
Heartbeat CPU 0 instructions: 65000000 cycles: 94410132 heartbeat IPC: 0.732525 cumulative IPC: 0.623885 (Simulation time: 3 hr 18 min 18 sec) 
Heartbeat CPU 0 instructions: 66000000 cycles: 95776151 heartbeat IPC: 0.732054 cumulative IPC: 0.625536 (Simulation time: 3 hr 21 min 11 sec) 
Heartbeat CPU 0 instructions: 67000003 cycles: 97131539 heartbeat IPC: 0.737798 cumulative IPC: 0.62721 (Simulation time: 3 hr 24 min 11 sec) 
Heartbeat CPU 0 instructions: 68000000 cycles: 98461654 heartbeat IPC: 0.751812 cumulative IPC: 0.629008 (Simulation time: 3 hr 27 min 31 sec) 
Heartbeat CPU 0 instructions: 69000000 cycles: 99795005 heartbeat IPC: 0.74999 cumulative IPC: 0.630732 (Simulation time: 3 hr 30 min 36 sec) 
Heartbeat CPU 0 instructions: 70000001 cycles: 101118244 heartbeat IPC: 0.755722 cumulative IPC: 0.632475 (Simulation time: 3 hr 33 min 52 sec) 
Heartbeat CPU 0 instructions: 71000002 cycles: 102470354 heartbeat IPC: 0.739586 cumulative IPC: 0.633981 (Simulation time: 3 hr 37 min 0 sec) 
Heartbeat CPU 0 instructions: 72000000 cycles: 103796249 heartbeat IPC: 0.754206 cumulative IPC: 0.635615 (Simulation time: 3 hr 39 min 59 sec) 
Heartbeat CPU 0 instructions: 73000000 cycles: 105132438 heartbeat IPC: 0.748397 cumulative IPC: 0.637139 (Simulation time: 3 hr 42 min 51 sec) 
Heartbeat CPU 0 instructions: 74000000 cycles: 106463077 heartbeat IPC: 0.751519 cumulative IPC: 0.638658 (Simulation time: 3 hr 45 min 52 sec) 
Heartbeat CPU 0 instructions: 75000002 cycles: 107779855 heartbeat IPC: 0.759431 cumulative IPC: 0.640224 (Simulation time: 3 hr 48 min 50 sec) 
Heartbeat CPU 0 instructions: 76000000 cycles: 109131385 heartbeat IPC: 0.739901 cumulative IPC: 0.641534 (Simulation time: 3 hr 51 min 56 sec) 
Heartbeat CPU 0 instructions: 77000000 cycles: 110461013 heartbeat IPC: 0.75209 cumulative IPC: 0.642944 (Simulation time: 3 hr 54 min 40 sec) 
Heartbeat CPU 0 instructions: 78000003 cycles: 111842589 heartbeat IPC: 0.723813 cumulative IPC: 0.644002 (Simulation time: 3 hr 57 min 39 sec) 
Heartbeat CPU 0 instructions: 79000000 cycles: 113345557 heartbeat IPC: 0.665348 cumulative IPC: 0.644302 (Simulation time: 4 hr 0 min 30 sec) 
Heartbeat CPU 0 instructions: 80000000 cycles: 114988628 heartbeat IPC: 0.608616 cumulative IPC: 0.643763 (Simulation time: 4 hr 3 min 10 sec) 
Heartbeat CPU 0 instructions: 81000002 cycles: 116597148 heartbeat IPC: 0.621691 cumulative IPC: 0.643441 (Simulation time: 4 hr 5 min 44 sec) 
Heartbeat CPU 0 instructions: 82000003 cycles: 118249448 heartbeat IPC: 0.605218 cumulative IPC: 0.642877 (Simulation time: 4 hr 8 min 11 sec) 
Heartbeat CPU 0 instructions: 83000003 cycles: 119914406 heartbeat IPC: 0.600616 cumulative IPC: 0.642258 (Simulation time: 4 hr 10 min 35 sec) 
Heartbeat CPU 0 instructions: 84000000 cycles: 121529448 heartbeat IPC: 0.619177 cumulative IPC: 0.641935 (Simulation time: 4 hr 12 min 51 sec) 
Heartbeat CPU 0 instructions: 85000001 cycles: 123166331 heartbeat IPC: 0.610918 cumulative IPC: 0.6415 (Simulation time: 4 hr 15 min 25 sec) 
Heartbeat CPU 0 instructions: 86000002 cycles: 124784801 heartbeat IPC: 0.617868 cumulative IPC: 0.641178 (Simulation time: 4 hr 17 min 52 sec) 
Heartbeat CPU 0 instructions: 87000000 cycles: 126409159 heartbeat IPC: 0.615627 cumulative IPC: 0.640832 (Simulation time: 4 hr 20 min 15 sec) 
Heartbeat CPU 0 instructions: 88000000 cycles: 128058108 heartbeat IPC: 0.606447 cumulative IPC: 0.640367 (Simulation time: 4 hr 22 min 22 sec) 
Heartbeat CPU 0 instructions: 89000002 cycles: 129681757 heartbeat IPC: 0.615898 cumulative IPC: 0.640045 (Simulation time: 4 hr 24 min 26 sec) 
Heartbeat CPU 0 instructions: 90000001 cycles: 131307210 heartbeat IPC: 0.615213 cumulative IPC: 0.639722 (Simulation time: 4 hr 26 min 32 sec) 
Heartbeat CPU 0 instructions: 91000003 cycles: 132931770 heartbeat IPC: 0.615553 cumulative IPC: 0.639412 (Simulation time: 4 hr 28 min 25 sec) 
Heartbeat CPU 0 instructions: 92000000 cycles: 134568920 heartbeat IPC: 0.610816 cumulative IPC: 0.639047 (Simulation time: 4 hr 30 min 15 sec) 
Heartbeat CPU 0 instructions: 93000001 cycles: 136232052 heartbeat IPC: 0.601276 cumulative IPC: 0.638564 (Simulation time: 4 hr 31 min 59 sec) 
Heartbeat CPU 0 instructions: 94000003 cycles: 137876716 heartbeat IPC: 0.608028 cumulative IPC: 0.638182 (Simulation time: 4 hr 33 min 36 sec) 
Heartbeat CPU 0 instructions: 95000002 cycles: 139566947 heartbeat IPC: 0.591635 cumulative IPC: 0.637592 (Simulation time: 4 hr 35 min 16 sec) 
Heartbeat CPU 0 instructions: 96000000 cycles: 141206116 heartbeat IPC: 0.610064 cumulative IPC: 0.637258 (Simulation time: 4 hr 36 min 51 sec) 
Heartbeat CPU 0 instructions: 97000003 cycles: 143181124 heartbeat IPC: 0.506329 cumulative IPC: 0.635369 (Simulation time: 4 hr 38 min 34 sec) 
Heartbeat CPU 0 instructions: 98000002 cycles: 148678416 heartbeat IPC: 0.181908 cumulative IPC: 0.617867 (Simulation time: 4 hr 41 min 33 sec) 
Heartbeat CPU 0 instructions: 99000000 cycles: 151781466 heartbeat IPC: 0.322263 cumulative IPC: 0.611564 (Simulation time: 4 hr 43 min 37 sec) 
Heartbeat CPU 0 instructions: 100000000 cycles: 153379880 heartbeat IPC: 0.62562 cumulative IPC: 0.611717 (Simulation time: 4 hr 44 min 42 sec) 
Heartbeat CPU 0 instructions: 101000002 cycles: 154625640 heartbeat IPC: 0.802724 cumulative IPC: 0.61332 (Simulation time: 4 hr 45 min 32 sec) 
Heartbeat CPU 0 instructions: 102000003 cycles: 156033617 heartbeat IPC: 0.71024 cumulative IPC: 0.614231 (Simulation time: 4 hr 46 min 18 sec) 
Heartbeat CPU 0 instructions: 103000002 cycles: 157462257 heartbeat IPC: 0.699966 cumulative IPC: 0.615041 (Simulation time: 4 hr 47 min 1 sec) 
Heartbeat CPU 0 instructions: 104000000 cycles: 158893271 heartbeat IPC: 0.698804 cumulative IPC: 0.615827 (Simulation time: 4 hr 47 min 49 sec) 
Heartbeat CPU 0 instructions: 105000001 cycles: 160354455 heartbeat IPC: 0.684377 cumulative IPC: 0.616477 (Simulation time: 4 hr 48 min 32 sec) 
Heartbeat CPU 0 instructions: 106000001 cycles: 161826202 heartbeat IPC: 0.679465 cumulative IPC: 0.617072 (Simulation time: 4 hr 49 min 13 sec) 
Heartbeat CPU 0 instructions: 107000001 cycles: 163283423 heartbeat IPC: 0.686238 cumulative IPC: 0.617714 (Simulation time: 4 hr 49 min 53 sec) 
Heartbeat CPU 0 instructions: 108000000 cycles: 164756653 heartbeat IPC: 0.67878 cumulative IPC: 0.618282 (Simulation time: 4 hr 50 min 29 sec) 
Heartbeat CPU 0 instructions: 109000001 cycles: 166209767 heartbeat IPC: 0.688178 cumulative IPC: 0.618917 (Simulation time: 4 hr 51 min 4 sec) 
Heartbeat CPU 0 instructions: 110000001 cycles: 167672294 heartbeat IPC: 0.683748 cumulative IPC: 0.619504 (Simulation time: 4 hr 51 min 40 sec) 
Finished CPU 0 instructions: 100000000 cycles: 161419391 cummulative IPC: 0.619504 (Simulation time: 4 hr 51 min 40 sec) 

ChampSim completed all CPUs

Region of Interest Statistics

CPU 0 cummulative IPC: 0.619504 instructions: 100000000 cycles: 161419391
LLC TOTAL     ACCESS:    4603381  HIT:     459569  MISS:    4143812
LLC LOAD      ACCESS:     461388  HIT:      51002  MISS:     410386
LLC RFO       ACCESS:     741547  HIT:     102831  MISS:     638716
LLC PREFETCH  ACCESS:    2300397  HIT:     131020  MISS:    2169377
LLC WRITEBACK ACCESS:    1100049  HIT:     174716  MISS:     925333
