
*** ChampSim Multicore Out-of-Order Simulator ***

Warmup Instructions: 10000000
Simulation Instructions: 100000000
Configuration: 2
Number of CPUs: 1
LLC sets: 2048
LLC ways: 16
Off-chip DRAM Channels: 1 Width: 64-bit Data Rate: 1600 MT/s

CPU 0 runs /datasets/cs240c-wi22-a00-public/data/Assignment2-gz/calculix_3812B.trace.gz
CPU 0 L1D next line prefetcher
CPU 0 L2C IP-based stride prefetcher
config 2, num_core 1, llc_sets 2048
Heartbeat CPU 0 instructions: 1000001 cycles: 478705 heartbeat IPC: 2.08897 cumulative IPC: 2.08897 (Simulation time: 0 hr 3 min 13 sec) 
Heartbeat CPU 0 instructions: 2000002 cycles: 956508 heartbeat IPC: 2.09291 cumulative IPC: 2.09094 (Simulation time: 0 hr 6 min 23 sec) 
Heartbeat CPU 0 instructions: 3000002 cycles: 1435024 heartbeat IPC: 2.08979 cumulative IPC: 2.09056 (Simulation time: 0 hr 9 min 41 sec) 
Heartbeat CPU 0 instructions: 4000000 cycles: 1907507 heartbeat IPC: 2.11647 cumulative IPC: 2.09698 (Simulation time: 0 hr 12 min 52 sec) 
Heartbeat CPU 0 instructions: 5000000 cycles: 2355871 heartbeat IPC: 2.23033 cumulative IPC: 2.12236 (Simulation time: 0 hr 15 min 56 sec) 
Heartbeat CPU 0 instructions: 6000003 cycles: 2761282 heartbeat IPC: 2.46664 cumulative IPC: 2.1729 (Simulation time: 0 hr 18 min 20 sec) 
Heartbeat CPU 0 instructions: 7000002 cycles: 3154376 heartbeat IPC: 2.54392 cumulative IPC: 2.21914 (Simulation time: 0 hr 20 min 46 sec) 
Heartbeat CPU 0 instructions: 8000000 cycles: 3547516 heartbeat IPC: 2.54362 cumulative IPC: 2.2551 (Simulation time: 0 hr 23 min 8 sec) 
Heartbeat CPU 0 instructions: 9000000 cycles: 3940528 heartbeat IPC: 2.54445 cumulative IPC: 2.28396 (Simulation time: 0 hr 25 min 25 sec) 
Heartbeat CPU 0 instructions: 10000003 cycles: 4333641 heartbeat IPC: 2.54381 cumulative IPC: 2.30753 (Simulation time: 0 hr 27 min 47 sec) 

Warmup complete CPU 0 instructions: 10000003 cycles: 4333641 (Simulation time: 0 hr 27 min 47 sec) 

Heartbeat CPU 0 instructions: 11000001 cycles: 4772058 heartbeat IPC: 2.28093 cumulative IPC: 2.28093 (Simulation time: 0 hr 30 min 34 sec) 
Heartbeat CPU 0 instructions: 12000000 cycles: 5208862 heartbeat IPC: 2.28935 cumulative IPC: 2.28513 (Simulation time: 0 hr 33 min 16 sec) 
Heartbeat CPU 0 instructions: 13000002 cycles: 5645027 heartbeat IPC: 2.29271 cumulative IPC: 2.28766 (Simulation time: 0 hr 36 min 7 sec) 
Heartbeat CPU 0 instructions: 14000000 cycles: 6443464 heartbeat IPC: 1.25244 cumulative IPC: 1.89589 (Simulation time: 0 hr 39 min 22 sec) 
Heartbeat CPU 0 instructions: 15000003 cycles: 6921561 heartbeat IPC: 2.09163 cumulative IPC: 1.93205 (Simulation time: 0 hr 42 min 7 sec) 
Heartbeat CPU 0 instructions: 16000000 cycles: 7366902 heartbeat IPC: 2.24546 cumulative IPC: 1.97807 (Simulation time: 0 hr 44 min 53 sec) 
Heartbeat CPU 0 instructions: 17000001 cycles: 7811002 heartbeat IPC: 2.25175 cumulative IPC: 2.01302 (Simulation time: 0 hr 47 min 34 sec) 
Heartbeat CPU 0 instructions: 18000001 cycles: 8251511 heartbeat IPC: 2.2701 cumulative IPC: 2.04193 (Simulation time: 0 hr 50 min 36 sec) 
Heartbeat CPU 0 instructions: 19000001 cycles: 8689283 heartbeat IPC: 2.28429 cumulative IPC: 2.06629 (Simulation time: 0 hr 53 min 26 sec) 
Heartbeat CPU 0 instructions: 20000000 cycles: 9213573 heartbeat IPC: 1.90734 cumulative IPC: 2.04921 (Simulation time: 0 hr 56 min 19 sec) 
Heartbeat CPU 0 instructions: 21000001 cycles: 9655758 heartbeat IPC: 2.2615 cumulative IPC: 2.06685 (Simulation time: 0 hr 58 min 47 sec) 
Heartbeat CPU 0 instructions: 22000000 cycles: 10098506 heartbeat IPC: 2.25862 cumulative IPC: 2.08157 (Simulation time: 1 hr 1 min 30 sec) 
Heartbeat CPU 0 instructions: 23000001 cycles: 10538346 heartbeat IPC: 2.27356 cumulative IPC: 2.09518 (Simulation time: 1 hr 4 min 8 sec) 
Heartbeat CPU 0 instructions: 24000000 cycles: 10978693 heartbeat IPC: 2.27093 cumulative IPC: 2.10683 (Simulation time: 1 hr 7 min 0 sec) 
Heartbeat CPU 0 instructions: 25000003 cycles: 11504261 heartbeat IPC: 1.90271 cumulative IPC: 2.09187 (Simulation time: 1 hr 9 min 56 sec) 
Heartbeat CPU 0 instructions: 26000003 cycles: 12051570 heartbeat IPC: 1.82712 cumulative IPC: 2.0731 (Simulation time: 1 hr 12 min 39 sec) 
Heartbeat CPU 0 instructions: 27000000 cycles: 12584563 heartbeat IPC: 1.87619 cumulative IPC: 2.06038 (Simulation time: 1 hr 15 min 47 sec) 
Heartbeat CPU 0 instructions: 28000000 cycles: 13225890 heartbeat IPC: 1.55927 cumulative IPC: 2.02423 (Simulation time: 1 hr 18 min 27 sec) 
Heartbeat CPU 0 instructions: 29000002 cycles: 13703871 heartbeat IPC: 2.09214 cumulative IPC: 2.0277 (Simulation time: 1 hr 21 min 9 sec) 
Heartbeat CPU 0 instructions: 30000001 cycles: 14255753 heartbeat IPC: 1.81198 cumulative IPC: 2.0157 (Simulation time: 1 hr 23 min 9 sec) 
Heartbeat CPU 0 instructions: 31000001 cycles: 14802602 heartbeat IPC: 1.82866 cumulative IPC: 2.00593 (Simulation time: 1 hr 25 min 26 sec) 
Heartbeat CPU 0 instructions: 32000000 cycles: 15533416 heartbeat IPC: 1.36834 cumulative IPC: 1.96432 (Simulation time: 1 hr 27 min 40 sec) 
Heartbeat CPU 0 instructions: 33000003 cycles: 16238103 heartbeat IPC: 1.41907 cumulative IPC: 1.93205 (Simulation time: 1 hr 30 min 7 sec) 
Heartbeat CPU 0 instructions: 34000000 cycles: 16937998 heartbeat IPC: 1.42878 cumulative IPC: 1.9041 (Simulation time: 1 hr 32 min 30 sec) 
Heartbeat CPU 0 instructions: 35000000 cycles: 17611197 heartbeat IPC: 1.48544 cumulative IPC: 1.88288 (Simulation time: 1 hr 34 min 33 sec) 
Heartbeat CPU 0 instructions: 36000000 cycles: 18252530 heartbeat IPC: 1.55925 cumulative IPC: 1.86796 (Simulation time: 1 hr 36 min 34 sec) 
Heartbeat CPU 0 instructions: 37000002 cycles: 18878347 heartbeat IPC: 1.59791 cumulative IPC: 1.85635 (Simulation time: 1 hr 38 min 42 sec) 
Heartbeat CPU 0 instructions: 38000003 cycles: 19513354 heartbeat IPC: 1.57479 cumulative IPC: 1.84457 (Simulation time: 1 hr 40 min 35 sec) 
Heartbeat CPU 0 instructions: 39000003 cycles: 20287319 heartbeat IPC: 1.29205 cumulative IPC: 1.81776 (Simulation time: 1 hr 42 min 45 sec) 
Heartbeat CPU 0 instructions: 40000000 cycles: 21122250 heartbeat IPC: 1.1977 cumulative IPC: 1.78693 (Simulation time: 1 hr 44 min 50 sec) 
Heartbeat CPU 0 instructions: 41000000 cycles: 22044574 heartbeat IPC: 1.08422 cumulative IPC: 1.75033 (Simulation time: 1 hr 46 min 54 sec) 
Heartbeat CPU 0 instructions: 42000001 cycles: 22645948 heartbeat IPC: 1.66286 cumulative IPC: 1.74746 (Simulation time: 1 hr 49 min 0 sec) 
Heartbeat CPU 0 instructions: 43000000 cycles: 23266698 heartbeat IPC: 1.61095 cumulative IPC: 1.74298 (Simulation time: 1 hr 51 min 12 sec) 
Heartbeat CPU 0 instructions: 44000000 cycles: 23943455 heartbeat IPC: 1.47764 cumulative IPC: 1.73383 (Simulation time: 1 hr 53 min 36 sec) 
Heartbeat CPU 0 instructions: 45000002 cycles: 24617864 heartbeat IPC: 1.48278 cumulative IPC: 1.72548 (Simulation time: 1 hr 55 min 57 sec) 
Heartbeat CPU 0 instructions: 46000002 cycles: 25341903 heartbeat IPC: 1.38114 cumulative IPC: 1.71361 (Simulation time: 1 hr 58 min 15 sec) 
Heartbeat CPU 0 instructions: 47000002 cycles: 26147420 heartbeat IPC: 1.24144 cumulative IPC: 1.69618 (Simulation time: 2 hr 0 min 3 sec) 
Heartbeat CPU 0 instructions: 48000000 cycles: 26599365 heartbeat IPC: 2.21265 cumulative IPC: 1.70666 (Simulation time: 2 hr 1 min 41 sec) 
Heartbeat CPU 0 instructions: 49000000 cycles: 27061558 heartbeat IPC: 2.1636 cumulative IPC: 1.71595 (Simulation time: 2 hr 3 min 16 sec) 
Heartbeat CPU 0 instructions: 50000000 cycles: 27550385 heartbeat IPC: 2.04571 cumulative IPC: 1.72289 (Simulation time: 2 hr 4 min 44 sec) 
Heartbeat CPU 0 instructions: 51000000 cycles: 28144443 heartbeat IPC: 1.68334 cumulative IPC: 1.72191 (Simulation time: 2 hr 6 min 34 sec) 
Heartbeat CPU 0 instructions: 52000000 cycles: 28688109 heartbeat IPC: 1.83936 cumulative IPC: 1.72453 (Simulation time: 2 hr 8 min 13 sec) 
Heartbeat CPU 0 instructions: 53000000 cycles: 29144262 heartbeat IPC: 2.19225 cumulative IPC: 1.73313 (Simulation time: 2 hr 9 min 44 sec) 
Heartbeat CPU 0 instructions: 54000003 cycles: 29602018 heartbeat IPC: 2.18458 cumulative IPC: 1.74131 (Simulation time: 2 hr 11 min 37 sec) 
Heartbeat CPU 0 instructions: 55000001 cycles: 30061431 heartbeat IPC: 2.17669 cumulative IPC: 1.74908 (Simulation time: 2 hr 13 min 5 sec) 
Heartbeat CPU 0 instructions: 56000000 cycles: 30521795 heartbeat IPC: 2.17219 cumulative IPC: 1.75652 (Simulation time: 2 hr 14 min 46 sec) 
Heartbeat CPU 0 instructions: 57000003 cycles: 30984618 heartbeat IPC: 2.16066 cumulative IPC: 1.76354 (Simulation time: 2 hr 16 min 49 sec) 
Heartbeat CPU 0 instructions: 58000000 cycles: 31459847 heartbeat IPC: 2.10424 cumulative IPC: 1.76951 (Simulation time: 2 hr 18 min 40 sec) 
Heartbeat CPU 0 instructions: 59000001 cycles: 32043867 heartbeat IPC: 1.71227 cumulative IPC: 1.7683 (Simulation time: 2 hr 20 min 46 sec) 
Heartbeat CPU 0 instructions: 60000000 cycles: 32595819 heartbeat IPC: 1.81175 cumulative IPC: 1.76915 (Simulation time: 2 hr 22 min 57 sec) 
Heartbeat CPU 0 instructions: 61000003 cycles: 33159101 heartbeat IPC: 1.77532 cumulative IPC: 1.76927 (Simulation time: 2 hr 25 min 9 sec) 
Heartbeat CPU 0 instructions: 62000002 cycles: 33719943 heartbeat IPC: 1.78303 cumulative IPC: 1.76953 (Simulation time: 2 hr 27 min 4 sec) 
Heartbeat CPU 0 instructions: 63000001 cycles: 34287499 heartbeat IPC: 1.76194 cumulative IPC: 1.76939 (Simulation time: 2 hr 28 min 53 sec) 
Heartbeat CPU 0 instructions: 64000000 cycles: 34850839 heartbeat IPC: 1.77513 cumulative IPC: 1.76949 (Simulation time: 2 hr 30 min 32 sec) 
Heartbeat CPU 0 instructions: 65000000 cycles: 35554210 heartbeat IPC: 1.42172 cumulative IPC: 1.76166 (Simulation time: 2 hr 32 min 35 sec) 
Heartbeat CPU 0 instructions: 66000002 cycles: 36107487 heartbeat IPC: 1.80742 cumulative IPC: 1.76246 (Simulation time: 2 hr 34 min 6 sec) 
Heartbeat CPU 0 instructions: 67000002 cycles: 36602626 heartbeat IPC: 2.01963 cumulative IPC: 1.7664 (Simulation time: 2 hr 35 min 47 sec) 
Heartbeat CPU 0 instructions: 68000000 cycles: 37086052 heartbeat IPC: 2.06856 cumulative IPC: 1.77086 (Simulation time: 2 hr 37 min 32 sec) 
Heartbeat CPU 0 instructions: 69000003 cycles: 37623819 heartbeat IPC: 1.85955 cumulative IPC: 1.77229 (Simulation time: 2 hr 39 min 5 sec) 
Heartbeat CPU 0 instructions: 70000000 cycles: 38129684 heartbeat IPC: 1.97681 cumulative IPC: 1.77536 (Simulation time: 2 hr 40 min 33 sec) 
Heartbeat CPU 0 instructions: 71000000 cycles: 38642812 heartbeat IPC: 1.94883 cumulative IPC: 1.77795 (Simulation time: 2 hr 42 min 16 sec) 
Heartbeat CPU 0 instructions: 72000000 cycles: 39157881 heartbeat IPC: 1.94149 cumulative IPC: 1.78037 (Simulation time: 2 hr 43 min 52 sec) 
Heartbeat CPU 0 instructions: 73000001 cycles: 39713045 heartbeat IPC: 1.80127 cumulative IPC: 1.7807 (Simulation time: 2 hr 45 min 34 sec) 
Heartbeat CPU 0 instructions: 74000002 cycles: 40332536 heartbeat IPC: 1.61423 cumulative IPC: 1.77783 (Simulation time: 2 hr 47 min 19 sec) 
Heartbeat CPU 0 instructions: 75000000 cycles: 40877514 heartbeat IPC: 1.83493 cumulative IPC: 1.77868 (Simulation time: 2 hr 48 min 57 sec) 
Heartbeat CPU 0 instructions: 76000000 cycles: 41713052 heartbeat IPC: 1.19683 cumulative IPC: 1.76568 (Simulation time: 2 hr 51 min 10 sec) 
Heartbeat CPU 0 instructions: 77000000 cycles: 42442876 heartbeat IPC: 1.37019 cumulative IPC: 1.7581 (Simulation time: 2 hr 53 min 9 sec) 
Heartbeat CPU 0 instructions: 78000003 cycles: 43161605 heartbeat IPC: 1.39135 cumulative IPC: 1.75132 (Simulation time: 2 hr 55 min 15 sec) 
Heartbeat CPU 0 instructions: 79000000 cycles: 43872506 heartbeat IPC: 1.40666 cumulative IPC: 1.74512 (Simulation time: 2 hr 57 min 28 sec) 
Heartbeat CPU 0 instructions: 80000000 cycles: 44557588 heartbeat IPC: 1.45968 cumulative IPC: 1.74026 (Simulation time: 2 hr 59 min 28 sec) 
Heartbeat CPU 0 instructions: 81000001 cycles: 45221920 heartbeat IPC: 1.50527 cumulative IPC: 1.73644 (Simulation time: 3 hr 1 min 25 sec) 
Heartbeat CPU 0 instructions: 82000002 cycles: 45864878 heartbeat IPC: 1.55531 cumulative IPC: 1.73363 (Simulation time: 3 hr 3 min 12 sec) 
Heartbeat CPU 0 instructions: 83000002 cycles: 46671186 heartbeat IPC: 1.24022 cumulative IPC: 1.72424 (Simulation time: 3 hr 5 min 20 sec) 
Heartbeat CPU 0 instructions: 84000000 cycles: 47325646 heartbeat IPC: 1.52797 cumulative IPC: 1.72125 (Simulation time: 3 hr 7 min 8 sec) 
Heartbeat CPU 0 instructions: 85000000 cycles: 47857634 heartbeat IPC: 1.87974 cumulative IPC: 1.72319 (Simulation time: 3 hr 8 min 41 sec) 
Heartbeat CPU 0 instructions: 86000001 cycles: 48392089 heartbeat IPC: 1.87107 cumulative IPC: 1.72498 (Simulation time: 3 hr 10 min 17 sec) 
Heartbeat CPU 0 instructions: 87000002 cycles: 48920411 heartbeat IPC: 1.89279 cumulative IPC: 1.72697 (Simulation time: 3 hr 12 min 4 sec) 
Heartbeat CPU 0 instructions: 88000000 cycles: 49445075 heartbeat IPC: 1.90598 cumulative IPC: 1.72905 (Simulation time: 3 hr 13 min 52 sec) 
Heartbeat CPU 0 instructions: 89000003 cycles: 49966553 heartbeat IPC: 1.91763 cumulative IPC: 1.73121 (Simulation time: 3 hr 15 min 38 sec) 
Heartbeat CPU 0 instructions: 90000003 cycles: 50489617 heartbeat IPC: 1.91181 cumulative IPC: 1.73325 (Simulation time: 3 hr 17 min 14 sec) 
Heartbeat CPU 0 instructions: 91000002 cycles: 51032877 heartbeat IPC: 1.84074 cumulative IPC: 1.7345 (Simulation time: 3 hr 19 min 18 sec) 
Heartbeat CPU 0 instructions: 92000000 cycles: 51493789 heartbeat IPC: 2.16961 cumulative IPC: 1.73876 (Simulation time: 3 hr 21 min 15 sec) 
Heartbeat CPU 0 instructions: 93000000 cycles: 51945801 heartbeat IPC: 2.21233 cumulative IPC: 1.74325 (Simulation time: 3 hr 22 min 57 sec) 
Heartbeat CPU 0 instructions: 94000003 cycles: 52395835 heartbeat IPC: 2.22206 cumulative IPC: 1.74774 (Simulation time: 3 hr 24 min 41 sec) 
Heartbeat CPU 0 instructions: 95000001 cycles: 53000144 heartbeat IPC: 1.65478 cumulative IPC: 1.74658 (Simulation time: 3 hr 26 min 54 sec) 
Heartbeat CPU 0 instructions: 96000000 cycles: 53559345 heartbeat IPC: 1.78826 cumulative IPC: 1.74705 (Simulation time: 3 hr 28 min 58 sec) 
Heartbeat CPU 0 instructions: 97000000 cycles: 54061141 heartbeat IPC: 1.99284 cumulative IPC: 1.74953 (Simulation time: 3 hr 30 min 26 sec) 
Heartbeat CPU 0 instructions: 98000003 cycles: 54562932 heartbeat IPC: 1.99287 cumulative IPC: 1.75197 (Simulation time: 3 hr 32 min 18 sec) 
Heartbeat CPU 0 instructions: 99000000 cycles: 55062571 heartbeat IPC: 2.00144 cumulative IPC: 1.75442 (Simulation time: 3 hr 34 min 2 sec) 
Heartbeat CPU 0 instructions: 100000000 cycles: 55563303 heartbeat IPC: 1.99708 cumulative IPC: 1.75679 (Simulation time: 3 hr 35 min 45 sec) 
Heartbeat CPU 0 instructions: 101000003 cycles: 56060164 heartbeat IPC: 2.01264 cumulative IPC: 1.75925 (Simulation time: 3 hr 37 min 30 sec) 
Heartbeat CPU 0 instructions: 102000002 cycles: 56617796 heartbeat IPC: 1.7933 cumulative IPC: 1.75962 (Simulation time: 3 hr 39 min 2 sec) 
Heartbeat CPU 0 instructions: 103000000 cycles: 57179204 heartbeat IPC: 1.78123 cumulative IPC: 1.75984 (Simulation time: 3 hr 40 min 39 sec) 
Heartbeat CPU 0 instructions: 104000000 cycles: 57741020 heartbeat IPC: 1.77994 cumulative IPC: 1.76006 (Simulation time: 3 hr 42 min 22 sec) 
Heartbeat CPU 0 instructions: 105000000 cycles: 58310481 heartbeat IPC: 1.75605 cumulative IPC: 1.76001 (Simulation time: 3 hr 44 min 3 sec) 
Heartbeat CPU 0 instructions: 106000003 cycles: 58876175 heartbeat IPC: 1.76775 cumulative IPC: 1.76009 (Simulation time: 3 hr 45 min 37 sec) 
Heartbeat CPU 0 instructions: 107000000 cycles: 59443197 heartbeat IPC: 1.76359 cumulative IPC: 1.76013 (Simulation time: 3 hr 47 min 24 sec) 
Heartbeat CPU 0 instructions: 108000000 cycles: 60056938 heartbeat IPC: 1.62935 cumulative IPC: 1.75869 (Simulation time: 3 hr 49 min 30 sec) 
Heartbeat CPU 0 instructions: 109000002 cycles: 60697910 heartbeat IPC: 1.56013 cumulative IPC: 1.75643 (Simulation time: 3 hr 51 min 31 sec) 
Heartbeat CPU 0 instructions: 110000003 cycles: 61179138 heartbeat IPC: 2.07802 cumulative IPC: 1.75915 (Simulation time: 3 hr 54 min 4 sec) 
Finished CPU 0 instructions: 100000000 cycles: 56845497 cummulative IPC: 1.75915 (Simulation time: 3 hr 54 min 4 sec) 

ChampSim completed all CPUs

Region of Interest Statistics

CPU 0 cummulative IPC: 1.75915 instructions: 100000000 cycles: 56845497
LLC TOTAL     ACCESS:    1161491  HIT:     912060  MISS:     249431
LLC LOAD      ACCESS:     133634  HIT:     126218  MISS:       7416
LLC RFO       ACCESS:      47551  HIT:      16482  MISS:      31069
LLC PREFETCH  ACCESS:     680483  HIT:     492261  MISS:     188222
LLC WRITEBACK ACCESS:     299823  HIT:     277099  MISS:      22724
