
*** ChampSim Multicore Out-of-Order Simulator ***

Warmup Instructions: 10000000
Simulation Instructions: 100000000
Configuration: 2
Number of CPUs: 1
LLC sets: 2048
LLC ways: 16
Off-chip DRAM Channels: 1 Width: 64-bit Data Rate: 1600 MT/s

CPU 0 runs /datasets/cs240c-wi22-a00-public/data/Assignment2-gz/sphinx3_1339B.trace.gz
CPU 0 L1D next line prefetcher
CPU 0 L2C IP-based stride prefetcher
config 2, num_core 1, llc_sets 2048
Heartbeat CPU 0 instructions: 1000000 cycles: 339022 heartbeat IPC: 2.94966 cumulative IPC: 2.94966 (Simulation time: 0 hr 2 min 8 sec) 
Heartbeat CPU 0 instructions: 2000001 cycles: 693463 heartbeat IPC: 2.82135 cumulative IPC: 2.88408 (Simulation time: 0 hr 4 min 25 sec) 
Heartbeat CPU 0 instructions: 3000000 cycles: 1084646 heartbeat IPC: 2.55635 cumulative IPC: 2.76588 (Simulation time: 0 hr 6 min 45 sec) 
Heartbeat CPU 0 instructions: 4000000 cycles: 1530060 heartbeat IPC: 2.2451 cumulative IPC: 2.61428 (Simulation time: 0 hr 9 min 11 sec) 
Heartbeat CPU 0 instructions: 5000003 cycles: 1869085 heartbeat IPC: 2.94964 cumulative IPC: 2.67511 (Simulation time: 0 hr 11 min 21 sec) 
Heartbeat CPU 0 instructions: 6000002 cycles: 2253329 heartbeat IPC: 2.60251 cumulative IPC: 2.66273 (Simulation time: 0 hr 13 min 32 sec) 
Heartbeat CPU 0 instructions: 7000001 cycles: 2717065 heartbeat IPC: 2.1564 cumulative IPC: 2.57631 (Simulation time: 0 hr 15 min 36 sec) 
Heartbeat CPU 0 instructions: 8000000 cycles: 3055950 heartbeat IPC: 2.95085 cumulative IPC: 2.61784 (Simulation time: 0 hr 17 min 43 sec) 
Heartbeat CPU 0 instructions: 9000003 cycles: 3412685 heartbeat IPC: 2.80321 cumulative IPC: 2.63722 (Simulation time: 0 hr 19 min 46 sec) 
Heartbeat CPU 0 instructions: 10000001 cycles: 3799510 heartbeat IPC: 2.58514 cumulative IPC: 2.63192 (Simulation time: 0 hr 21 min 58 sec) 

Warmup complete CPU 0 instructions: 10000001 cycles: 3799510 (Simulation time: 0 hr 21 min 58 sec) 

Heartbeat CPU 0 instructions: 11000001 cycles: 4887379 heartbeat IPC: 0.919228 cumulative IPC: 0.919228 (Simulation time: 0 hr 24 min 30 sec) 
Heartbeat CPU 0 instructions: 12000000 cycles: 5798689 heartbeat IPC: 1.09732 cumulative IPC: 1.00041 (Simulation time: 0 hr 26 min 52 sec) 
Heartbeat CPU 0 instructions: 13000000 cycles: 7487418 heartbeat IPC: 0.592161 cumulative IPC: 0.813469 (Simulation time: 0 hr 29 min 29 sec) 
Heartbeat CPU 0 instructions: 14000000 cycles: 8590294 heartbeat IPC: 0.90672 cumulative IPC: 0.834936 (Simulation time: 0 hr 31 min 58 sec) 
Heartbeat CPU 0 instructions: 15000001 cycles: 9540717 heartbeat IPC: 1.05216 cumulative IPC: 0.870897 (Simulation time: 0 hr 34 min 26 sec) 
Heartbeat CPU 0 instructions: 16000000 cycles: 10833180 heartbeat IPC: 0.773716 cumulative IPC: 0.85304 (Simulation time: 0 hr 36 min 49 sec) 
Heartbeat CPU 0 instructions: 17000001 cycles: 12407807 heartbeat IPC: 0.635072 cumulative IPC: 0.813169 (Simulation time: 0 hr 39 min 16 sec) 
Heartbeat CPU 0 instructions: 18000003 cycles: 13520710 heartbeat IPC: 0.898553 cumulative IPC: 0.822944 (Simulation time: 0 hr 41 min 31 sec) 
Heartbeat CPU 0 instructions: 19000002 cycles: 14542652 heartbeat IPC: 0.978528 cumulative IPC: 0.837744 (Simulation time: 0 hr 44 min 2 sec) 
Heartbeat CPU 0 instructions: 20000000 cycles: 15464536 heartbeat IPC: 1.08473 cumulative IPC: 0.857263 (Simulation time: 0 hr 46 min 25 sec) 
Heartbeat CPU 0 instructions: 21000000 cycles: 17002581 heartbeat IPC: 0.650176 cumulative IPC: 0.833139 (Simulation time: 0 hr 48 min 58 sec) 
Heartbeat CPU 0 instructions: 22000000 cycles: 18230217 heartbeat IPC: 0.814574 cumulative IPC: 0.83156 (Simulation time: 0 hr 51 min 23 sec) 
Heartbeat CPU 0 instructions: 23000003 cycles: 19182458 heartbeat IPC: 1.05016 cumulative IPC: 0.845092 (Simulation time: 0 hr 53 min 53 sec) 
Heartbeat CPU 0 instructions: 24000000 cycles: 20278225 heartbeat IPC: 0.9126 cumulative IPC: 0.849581 (Simulation time: 0 hr 56 min 15 sec) 
Heartbeat CPU 0 instructions: 25000001 cycles: 21479752 heartbeat IPC: 0.832275 cumulative IPC: 0.848405 (Simulation time: 0 hr 58 min 45 sec) 
Heartbeat CPU 0 instructions: 26000003 cycles: 22404034 heartbeat IPC: 1.08192 cumulative IPC: 0.860006 (Simulation time: 1 hr 1 min 6 sec) 
Heartbeat CPU 0 instructions: 27000000 cycles: 23310681 heartbeat IPC: 1.10296 cumulative IPC: 0.871296 (Simulation time: 1 hr 3 min 26 sec) 
Heartbeat CPU 0 instructions: 28000000 cycles: 24537944 heartbeat IPC: 0.814821 cumulative IPC: 0.867954 (Simulation time: 1 hr 5 min 42 sec) 
Heartbeat CPU 0 instructions: 29000003 cycles: 25498657 heartbeat IPC: 1.0409 cumulative IPC: 0.875611 (Simulation time: 1 hr 8 min 2 sec) 
Heartbeat CPU 0 instructions: 30000003 cycles: 26392884 heartbeat IPC: 1.11828 cumulative IPC: 0.885215 (Simulation time: 1 hr 10 min 29 sec) 
Heartbeat CPU 0 instructions: 31000002 cycles: 27555539 heartbeat IPC: 0.860099 cumulative IPC: 0.883986 (Simulation time: 1 hr 12 min 58 sec) 
Heartbeat CPU 0 instructions: 32000000 cycles: 28571182 heartbeat IPC: 0.984596 cumulative IPC: 0.888111 (Simulation time: 1 hr 15 min 21 sec) 
Heartbeat CPU 0 instructions: 33000001 cycles: 29470231 heartbeat IPC: 1.11229 cumulative IPC: 0.895962 (Simulation time: 1 hr 17 min 40 sec) 
Heartbeat CPU 0 instructions: 34000001 cycles: 31104309 heartbeat IPC: 0.611966 cumulative IPC: 0.878966 (Simulation time: 1 hr 20 min 28 sec) 
Heartbeat CPU 0 instructions: 35000002 cycles: 32243542 heartbeat IPC: 0.877784 cumulative IPC: 0.878919 (Simulation time: 1 hr 22 min 52 sec) 
Heartbeat CPU 0 instructions: 36000000 cycles: 33204343 heartbeat IPC: 1.0408 cumulative IPC: 0.884208 (Simulation time: 1 hr 25 min 19 sec) 
Heartbeat CPU 0 instructions: 37000003 cycles: 34386284 heartbeat IPC: 0.846068 cumulative IPC: 0.882735 (Simulation time: 1 hr 27 min 43 sec) 
Heartbeat CPU 0 instructions: 38000000 cycles: 35895282 heartbeat IPC: 0.662689 cumulative IPC: 0.872389 (Simulation time: 1 hr 30 min 11 sec) 
Heartbeat CPU 0 instructions: 39000003 cycles: 36935639 heartbeat IPC: 0.961211 cumulative IPC: 0.875178 (Simulation time: 1 hr 32 min 34 sec) 
Heartbeat CPU 0 instructions: 40000000 cycles: 37850574 heartbeat IPC: 1.09297 cumulative IPC: 0.88103 (Simulation time: 1 hr 34 min 53 sec) 
Heartbeat CPU 0 instructions: 41000001 cycles: 39433050 heartbeat IPC: 0.631922 cumulative IPC: 0.869967 (Simulation time: 1 hr 37 min 8 sec) 
Heartbeat CPU 0 instructions: 42000002 cycles: 40540611 heartbeat IPC: 0.902886 cumulative IPC: 0.870959 (Simulation time: 1 hr 39 min 27 sec) 
Heartbeat CPU 0 instructions: 43000001 cycles: 41491524 heartbeat IPC: 1.05162 cumulative IPC: 0.875517 (Simulation time: 1 hr 41 min 55 sec) 
Heartbeat CPU 0 instructions: 44000000 cycles: 42780326 heartbeat IPC: 0.775914 cumulative IPC: 0.872224 (Simulation time: 1 hr 44 min 10 sec) 
Heartbeat CPU 0 instructions: 45000002 cycles: 44087343 heartbeat IPC: 0.765103 cumulative IPC: 0.868749 (Simulation time: 1 hr 46 min 35 sec) 
Heartbeat CPU 0 instructions: 46000003 cycles: 45024753 heartbeat IPC: 1.06677 cumulative IPC: 0.873251 (Simulation time: 1 hr 48 min 42 sec) 
Heartbeat CPU 0 instructions: 47000001 cycles: 45941437 heartbeat IPC: 1.09089 cumulative IPC: 0.877985 (Simulation time: 1 hr 50 min 56 sec) 
Heartbeat CPU 0 instructions: 48000000 cycles: 47201315 heartbeat IPC: 0.793727 cumulative IPC: 0.87554 (Simulation time: 1 hr 53 min 14 sec) 
Heartbeat CPU 0 instructions: 49000000 cycles: 48225112 heartbeat IPC: 0.976756 cumulative IPC: 0.877872 (Simulation time: 1 hr 55 min 28 sec) 
Heartbeat CPU 0 instructions: 50000000 cycles: 49125566 heartbeat IPC: 1.11055 cumulative IPC: 0.882495 (Simulation time: 1 hr 57 min 54 sec) 
Heartbeat CPU 0 instructions: 51000001 cycles: 50691526 heartbeat IPC: 0.638587 cumulative IPC: 0.874349 (Simulation time: 2 hr 0 min 33 sec) 
Heartbeat CPU 0 instructions: 52000000 cycles: 51721526 heartbeat IPC: 0.970873 cumulative IPC: 0.876424 (Simulation time: 2 hr 2 min 44 sec) 
Heartbeat CPU 0 instructions: 53000002 cycles: 52652744 heartbeat IPC: 1.07386 cumulative IPC: 0.880187 (Simulation time: 2 hr 4 min 59 sec) 
Heartbeat CPU 0 instructions: 54000003 cycles: 54101845 heartbeat IPC: 0.690084 cumulative IPC: 0.874711 (Simulation time: 2 hr 7 min 20 sec) 
Heartbeat CPU 0 instructions: 55000001 cycles: 55230086 heartbeat IPC: 0.886334 cumulative IPC: 0.874966 (Simulation time: 2 hr 9 min 34 sec) 
Heartbeat CPU 0 instructions: 56000000 cycles: 56184944 heartbeat IPC: 1.04728 cumulative IPC: 0.878107 (Simulation time: 2 hr 11 min 43 sec) 
Heartbeat CPU 0 instructions: 57000000 cycles: 57329050 heartbeat IPC: 0.874045 cumulative IPC: 0.87802 (Simulation time: 2 hr 13 min 58 sec) 
Heartbeat CPU 0 instructions: 58000000 cycles: 58758208 heartbeat IPC: 0.699713 cumulative IPC: 0.873383 (Simulation time: 2 hr 16 min 3 sec) 
Heartbeat CPU 0 instructions: 59000001 cycles: 59732162 heartbeat IPC: 1.02674 cumulative IPC: 0.876054 (Simulation time: 2 hr 18 min 13 sec) 
Heartbeat CPU 0 instructions: 60000000 cycles: 60641856 heartbeat IPC: 1.09927 cumulative IPC: 0.879626 (Simulation time: 2 hr 20 min 32 sec) 
Heartbeat CPU 0 instructions: 61000000 cycles: 62341838 heartbeat IPC: 0.588242 cumulative IPC: 0.871165 (Simulation time: 2 hr 22 min 57 sec) 
Heartbeat CPU 0 instructions: 62000002 cycles: 63486505 heartbeat IPC: 0.873618 cumulative IPC: 0.871212 (Simulation time: 2 hr 25 min 21 sec) 
Heartbeat CPU 0 instructions: 63000003 cycles: 64504883 heartbeat IPC: 0.981955 cumulative IPC: 0.873069 (Simulation time: 2 hr 27 min 33 sec) 
Heartbeat CPU 0 instructions: 64000000 cycles: 65448331 heartbeat IPC: 1.05994 cumulative IPC: 0.875929 (Simulation time: 2 hr 29 min 42 sec) 
Heartbeat CPU 0 instructions: 65000000 cycles: 66775668 heartbeat IPC: 0.753388 cumulative IPC: 0.873346 (Simulation time: 2 hr 31 min 47 sec) 
Heartbeat CPU 0 instructions: 66000001 cycles: 68030964 heartbeat IPC: 0.796626 cumulative IPC: 0.871847 (Simulation time: 2 hr 34 min 14 sec) 
Heartbeat CPU 0 instructions: 67000000 cycles: 68984276 heartbeat IPC: 1.04897 cumulative IPC: 0.874437 (Simulation time: 2 hr 36 min 28 sec) 
Heartbeat CPU 0 instructions: 68000000 cycles: 70005772 heartbeat IPC: 0.978956 cumulative IPC: 0.87605 (Simulation time: 2 hr 38 min 36 sec) 
Heartbeat CPU 0 instructions: 69000003 cycles: 71480429 heartbeat IPC: 0.678126 cumulative IPC: 0.871738 (Simulation time: 2 hr 41 min 0 sec) 
Heartbeat CPU 0 instructions: 70000001 cycles: 72522546 heartbeat IPC: 0.959583 cumulative IPC: 0.87307 (Simulation time: 2 hr 43 min 23 sec) 
Heartbeat CPU 0 instructions: 71000001 cycles: 73434166 heartbeat IPC: 1.09695 cumulative IPC: 0.876001 (Simulation time: 2 hr 45 min 30 sec) 
Heartbeat CPU 0 instructions: 72000000 cycles: 75038963 heartbeat IPC: 0.623131 cumulative IPC: 0.870304 (Simulation time: 2 hr 47 min 44 sec) 
Heartbeat CPU 0 instructions: 73000001 cycles: 76068352 heartbeat IPC: 0.971451 cumulative IPC: 0.871745 (Simulation time: 2 hr 50 min 3 sec) 
Heartbeat CPU 0 instructions: 74000001 cycles: 77006161 heartbeat IPC: 1.06632 cumulative IPC: 0.874237 (Simulation time: 2 hr 52 min 13 sec) 
Heartbeat CPU 0 instructions: 75000003 cycles: 78383912 heartbeat IPC: 0.725822 cumulative IPC: 0.871496 (Simulation time: 2 hr 54 min 40 sec) 
Heartbeat CPU 0 instructions: 76000000 cycles: 79599793 heartbeat IPC: 0.822446 cumulative IPC: 0.870709 (Simulation time: 2 hr 57 min 8 sec) 
Heartbeat CPU 0 instructions: 77000002 cycles: 80558089 heartbeat IPC: 1.04352 cumulative IPC: 0.872867 (Simulation time: 2 hr 59 min 36 sec) 
Heartbeat CPU 0 instructions: 78000002 cycles: 81635914 heartbeat IPC: 0.927794 cumulative IPC: 0.873627 (Simulation time: 3 hr 2 min 9 sec) 
Heartbeat CPU 0 instructions: 79000001 cycles: 83049060 heartbeat IPC: 0.70764 cumulative IPC: 0.870667 (Simulation time: 3 hr 4 min 47 sec) 
Heartbeat CPU 0 instructions: 80000000 cycles: 84079674 heartbeat IPC: 0.970294 cumulative IPC: 0.871946 (Simulation time: 3 hr 7 min 26 sec) 
Heartbeat CPU 0 instructions: 81000001 cycles: 84989373 heartbeat IPC: 1.09927 cumulative IPC: 0.874493 (Simulation time: 3 hr 9 min 58 sec) 
Heartbeat CPU 0 instructions: 82000000 cycles: 86559930 heartbeat IPC: 0.636716 cumulative IPC: 0.869981 (Simulation time: 3 hr 12 min 28 sec) 
Heartbeat CPU 0 instructions: 83000001 cycles: 87602431 heartbeat IPC: 0.959233 cumulative IPC: 0.871091 (Simulation time: 3 hr 14 min 52 sec) 
Heartbeat CPU 0 instructions: 84000000 cycles: 88525154 heartbeat IPC: 1.08375 cumulative IPC: 0.873407 (Simulation time: 3 hr 17 min 13 sec) 
Heartbeat CPU 0 instructions: 85000002 cycles: 89989366 heartbeat IPC: 0.682963 cumulative IPC: 0.870172 (Simulation time: 3 hr 19 min 39 sec) 
Heartbeat CPU 0 instructions: 86000003 cycles: 91141832 heartbeat IPC: 0.867705 cumulative IPC: 0.870139 (Simulation time: 3 hr 22 min 13 sec) 
Heartbeat CPU 0 instructions: 87000001 cycles: 92100313 heartbeat IPC: 1.04332 cumulative IPC: 0.872019 (Simulation time: 3 hr 24 min 24 sec) 
Heartbeat CPU 0 instructions: 88000000 cycles: 93339704 heartbeat IPC: 0.806847 cumulative IPC: 0.871117 (Simulation time: 3 hr 26 min 49 sec) 
Heartbeat CPU 0 instructions: 89000000 cycles: 94688911 heartbeat IPC: 0.741176 cumulative IPC: 0.869188 (Simulation time: 3 hr 29 min 13 sec) 
Heartbeat CPU 0 instructions: 90000000 cycles: 95639795 heartbeat IPC: 1.05165 cumulative IPC: 0.871077 (Simulation time: 3 hr 31 min 21 sec) 
Heartbeat CPU 0 instructions: 91000000 cycles: 96562735 heartbeat IPC: 1.08349 cumulative IPC: 0.873191 (Simulation time: 3 hr 33 min 53 sec) 
Heartbeat CPU 0 instructions: 92000000 cycles: 98175411 heartbeat IPC: 0.620087 cumulative IPC: 0.868866 (Simulation time: 3 hr 36 min 15 sec) 
Heartbeat CPU 0 instructions: 93000001 cycles: 99209928 heartbeat IPC: 0.966636 cumulative IPC: 0.869926 (Simulation time: 3 hr 38 min 34 sec) 
Heartbeat CPU 0 instructions: 94000000 cycles: 100126416 heartbeat IPC: 1.09112 cumulative IPC: 0.87203 (Simulation time: 3 hr 40 min 47 sec) 
Heartbeat CPU 0 instructions: 95000003 cycles: 101743580 heartbeat IPC: 0.618368 cumulative IPC: 0.867842 (Simulation time: 3 hr 43 min 25 sec) 
Heartbeat CPU 0 instructions: 96000000 cycles: 102807060 heartbeat IPC: 0.940306 cumulative IPC: 0.868621 (Simulation time: 3 hr 46 min 2 sec) 
Heartbeat CPU 0 instructions: 97000002 cycles: 103749909 heartbeat IPC: 1.06062 cumulative IPC: 0.870432 (Simulation time: 3 hr 48 min 38 sec) 
Heartbeat CPU 0 instructions: 98000000 cycles: 105080503 heartbeat IPC: 0.751543 cumulative IPC: 0.86887 (Simulation time: 3 hr 51 min 16 sec) 
Heartbeat CPU 0 instructions: 99000003 cycles: 106544730 heartbeat IPC: 0.682956 cumulative IPC: 0.86622 (Simulation time: 3 hr 54 min 5 sec) 
Heartbeat CPU 0 instructions: 100000000 cycles: 107514814 heartbeat IPC: 1.03084 cumulative IPC: 0.86776 (Simulation time: 3 hr 56 min 36 sec) 
Heartbeat CPU 0 instructions: 101000000 cycles: 108435052 heartbeat IPC: 1.08668 cumulative IPC: 0.869685 (Simulation time: 3 hr 59 min 0 sec) 
Heartbeat CPU 0 instructions: 102000000 cycles: 110274255 heartbeat IPC: 0.543714 cumulative IPC: 0.864055 (Simulation time: 4 hr 1 min 32 sec) 
Heartbeat CPU 0 instructions: 103000000 cycles: 111639578 heartbeat IPC: 0.732427 cumulative IPC: 0.862388 (Simulation time: 4 hr 4 min 4 sec) 
Heartbeat CPU 0 instructions: 104000000 cycles: 112758166 heartbeat IPC: 0.893984 cumulative IPC: 0.862713 (Simulation time: 4 hr 6 min 14 sec) 
Heartbeat CPU 0 instructions: 105000003 cycles: 113719812 heartbeat IPC: 1.03989 cumulative IPC: 0.864263 (Simulation time: 4 hr 8 min 26 sec) 
Heartbeat CPU 0 instructions: 106000000 cycles: 114697020 heartbeat IPC: 1.02332 cumulative IPC: 0.865664 (Simulation time: 4 hr 10 min 43 sec) 
Heartbeat CPU 0 instructions: 107000001 cycles: 116638090 heartbeat IPC: 0.51518 cumulative IPC: 0.859635 (Simulation time: 4 hr 13 min 18 sec) 
Heartbeat CPU 0 instructions: 108000000 cycles: 117800415 heartbeat IPC: 0.860344 cumulative IPC: 0.859642 (Simulation time: 4 hr 15 min 27 sec) 
Heartbeat CPU 0 instructions: 109000000 cycles: 118746817 heartbeat IPC: 1.05663 cumulative IPC: 0.861264 (Simulation time: 4 hr 17 min 41 sec) 
Heartbeat CPU 0 instructions: 110000003 cycles: 120067494 heartbeat IPC: 0.75719 cumulative IPC: 0.860082 (Simulation time: 4 hr 19 min 51 sec) 
Finished CPU 0 instructions: 100000002 cycles: 116267984 cummulative IPC: 0.860082 (Simulation time: 4 hr 19 min 51 sec) 

ChampSim completed all CPUs

Region of Interest Statistics

CPU 0 cummulative IPC: 0.860082 instructions: 100000002 cycles: 116267984
LLC TOTAL     ACCESS:    1573550  HIT:          0  MISS:    1573550
LLC LOAD      ACCESS:     202239  HIT:          0  MISS:     202239
LLC RFO       ACCESS:     111938  HIT:          0  MISS:     111938
LLC PREFETCH  ACCESS:    1126220  HIT:          0  MISS:    1126220
LLC WRITEBACK ACCESS:     133153  HIT:          0  MISS:     133153
