
*** ChampSim Multicore Out-of-Order Simulator ***

Warmup Instructions: 10000000
Simulation Instructions: 100000000
Configuration: 2
Number of CPUs: 1
LLC sets: 2048
LLC ways: 16
Off-chip DRAM Channels: 1 Width: 64-bit Data Rate: 1600 MT/s

CPU 0 runs /datasets/cs240c-wi22-a00-public/data/Assignment2-gz/lbm_564B.trace.gz
CPU 0 L1D next line prefetcher
CPU 0 L2C IP-based stride prefetcher
config 2, num_core 1, llc_sets 2048
Heartbeat CPU 0 instructions: 1000000 cycles: 390166 heartbeat IPC: 2.56301 cumulative IPC: 2.56301 (Simulation time: 0 hr 2 min 21 sec) 
Heartbeat CPU 0 instructions: 2000003 cycles: 785201 heartbeat IPC: 2.53143 cumulative IPC: 2.54712 (Simulation time: 0 hr 4 min 24 sec) 
Heartbeat CPU 0 instructions: 3000002 cycles: 1175395 heartbeat IPC: 2.56283 cumulative IPC: 2.55234 (Simulation time: 0 hr 6 min 33 sec) 
Heartbeat CPU 0 instructions: 4000000 cycles: 1565579 heartbeat IPC: 2.56289 cumulative IPC: 2.55497 (Simulation time: 0 hr 8 min 42 sec) 
Heartbeat CPU 0 instructions: 5000000 cycles: 1960696 heartbeat IPC: 2.5309 cumulative IPC: 2.55011 (Simulation time: 0 hr 10 min 50 sec) 
Heartbeat CPU 0 instructions: 6000002 cycles: 2350853 heartbeat IPC: 2.56308 cumulative IPC: 2.55227 (Simulation time: 0 hr 12 min 58 sec) 
Heartbeat CPU 0 instructions: 7000001 cycles: 2741113 heartbeat IPC: 2.56239 cumulative IPC: 2.55371 (Simulation time: 0 hr 15 min 11 sec) 
Heartbeat CPU 0 instructions: 8000000 cycles: 3136118 heartbeat IPC: 2.53161 cumulative IPC: 2.55092 (Simulation time: 0 hr 17 min 21 sec) 
Heartbeat CPU 0 instructions: 9000000 cycles: 3526375 heartbeat IPC: 2.56241 cumulative IPC: 2.5522 (Simulation time: 0 hr 19 min 37 sec) 
Heartbeat CPU 0 instructions: 10000002 cycles: 3916525 heartbeat IPC: 2.56312 cumulative IPC: 2.55328 (Simulation time: 0 hr 21 min 48 sec) 

Warmup complete CPU 0 instructions: 10000002 cycles: 3916525 (Simulation time: 0 hr 21 min 48 sec) 

Heartbeat CPU 0 instructions: 11000000 cycles: 5501049 heartbeat IPC: 0.631103 cumulative IPC: 0.631103 (Simulation time: 0 hr 24 min 13 sec) 
Heartbeat CPU 0 instructions: 12000000 cycles: 7133928 heartbeat IPC: 0.612415 cumulative IPC: 0.621619 (Simulation time: 0 hr 26 min 49 sec) 
Heartbeat CPU 0 instructions: 13000001 cycles: 8667834 heartbeat IPC: 0.651931 cumulative IPC: 0.631405 (Simulation time: 0 hr 29 min 14 sec) 
Heartbeat CPU 0 instructions: 14000001 cycles: 10246202 heartbeat IPC: 0.633566 cumulative IPC: 0.631944 (Simulation time: 0 hr 31 min 39 sec) 
Heartbeat CPU 0 instructions: 15000000 cycles: 11879881 heartbeat IPC: 0.612115 cumulative IPC: 0.627876 (Simulation time: 0 hr 34 min 9 sec) 
Heartbeat CPU 0 instructions: 16000000 cycles: 13441118 heartbeat IPC: 0.640518 cumulative IPC: 0.629948 (Simulation time: 0 hr 36 min 34 sec) 
Heartbeat CPU 0 instructions: 17000000 cycles: 15000813 heartbeat IPC: 0.641151 cumulative IPC: 0.631524 (Simulation time: 0 hr 39 min 13 sec) 
Heartbeat CPU 0 instructions: 18000000 cycles: 16599589 heartbeat IPC: 0.625479 cumulative IPC: 0.630762 (Simulation time: 0 hr 41 min 49 sec) 
Heartbeat CPU 0 instructions: 19000003 cycles: 18128251 heartbeat IPC: 0.654169 cumulative IPC: 0.63328 (Simulation time: 0 hr 44 min 20 sec) 
Heartbeat CPU 0 instructions: 20000000 cycles: 19724936 heartbeat IPC: 0.626296 cumulative IPC: 0.632574 (Simulation time: 0 hr 46 min 59 sec) 
Heartbeat CPU 0 instructions: 21000003 cycles: 21275748 heartbeat IPC: 0.644825 cumulative IPC: 0.633669 (Simulation time: 0 hr 49 min 32 sec) 
Heartbeat CPU 0 instructions: 22000003 cycles: 23510948 heartbeat IPC: 0.447387 cumulative IPC: 0.612419 (Simulation time: 0 hr 52 min 35 sec) 
Heartbeat CPU 0 instructions: 23000001 cycles: 25985488 heartbeat IPC: 0.404115 cumulative IPC: 0.589063 (Simulation time: 0 hr 55 min 52 sec) 
Heartbeat CPU 0 instructions: 24000000 cycles: 33283571 heartbeat IPC: 0.137022 cumulative IPC: 0.476725 (Simulation time: 1 hr 3 min 7 sec) 
Heartbeat CPU 0 instructions: 25000003 cycles: 36240599 heartbeat IPC: 0.338178 cumulative IPC: 0.46405 (Simulation time: 1 hr 7 min 33 sec) 
Heartbeat CPU 0 instructions: 26000002 cycles: 38694795 heartbeat IPC: 0.407465 cumulative IPC: 0.460057 (Simulation time: 1 hr 11 min 42 sec) 
Heartbeat CPU 0 instructions: 27000001 cycles: 40242687 heartbeat IPC: 0.646039 cumulative IPC: 0.467982 (Simulation time: 1 hr 14 min 43 sec) 
Heartbeat CPU 0 instructions: 28000000 cycles: 41804071 heartbeat IPC: 0.640457 cumulative IPC: 0.47509 (Simulation time: 1 hr 17 min 59 sec) 
Heartbeat CPU 0 instructions: 29000003 cycles: 43351902 heartbeat IPC: 0.646067 cumulative IPC: 0.481801 (Simulation time: 1 hr 20 min 58 sec) 
Heartbeat CPU 0 instructions: 30000000 cycles: 44952368 heartbeat IPC: 0.624816 cumulative IPC: 0.487379 (Simulation time: 1 hr 24 min 1 sec) 
Heartbeat CPU 0 instructions: 31000000 cycles: 46485244 heartbeat IPC: 0.652368 cumulative IPC: 0.49332 (Simulation time: 1 hr 26 min 58 sec) 
Heartbeat CPU 0 instructions: 32000000 cycles: 48016066 heartbeat IPC: 0.653244 cumulative IPC: 0.498871 (Simulation time: 1 hr 29 min 59 sec) 
Heartbeat CPU 0 instructions: 33000001 cycles: 49643280 heartbeat IPC: 0.614548 cumulative IPC: 0.502988 (Simulation time: 1 hr 33 min 17 sec) 
Heartbeat CPU 0 instructions: 34000001 cycles: 51201823 heartbeat IPC: 0.641625 cumulative IPC: 0.507557 (Simulation time: 1 hr 36 min 24 sec) 
Heartbeat CPU 0 instructions: 35000002 cycles: 52767523 heartbeat IPC: 0.638693 cumulative IPC: 0.51176 (Simulation time: 1 hr 39 min 17 sec) 
Heartbeat CPU 0 instructions: 36000000 cycles: 54304009 heartbeat IPC: 0.650834 cumulative IPC: 0.516001 (Simulation time: 1 hr 42 min 15 sec) 
Heartbeat CPU 0 instructions: 37000000 cycles: 55952381 heartbeat IPC: 0.606659 cumulative IPC: 0.518873 (Simulation time: 1 hr 45 min 6 sec) 
Heartbeat CPU 0 instructions: 38000003 cycles: 57505939 heartbeat IPC: 0.643686 cumulative IPC: 0.522491 (Simulation time: 1 hr 48 min 6 sec) 
Heartbeat CPU 0 instructions: 39000002 cycles: 59092465 heartbeat IPC: 0.630307 cumulative IPC: 0.525591 (Simulation time: 1 hr 51 min 9 sec) 
Heartbeat CPU 0 instructions: 40000000 cycles: 60719338 heartbeat IPC: 0.614675 cumulative IPC: 0.528143 (Simulation time: 1 hr 54 min 17 sec) 
Heartbeat CPU 0 instructions: 41000000 cycles: 62273441 heartbeat IPC: 0.643458 cumulative IPC: 0.531214 (Simulation time: 1 hr 57 min 3 sec) 
Heartbeat CPU 0 instructions: 42000002 cycles: 63837359 heartbeat IPC: 0.639421 cumulative IPC: 0.534038 (Simulation time: 1 hr 59 min 55 sec) 
Heartbeat CPU 0 instructions: 43000001 cycles: 65453395 heartbeat IPC: 0.618797 cumulative IPC: 0.536264 (Simulation time: 2 hr 2 min 48 sec) 
Heartbeat CPU 0 instructions: 44000000 cycles: 67007081 heartbeat IPC: 0.64363 cumulative IPC: 0.538908 (Simulation time: 2 hr 5 min 24 sec) 
Heartbeat CPU 0 instructions: 45000001 cycles: 68564573 heartbeat IPC: 0.642058 cumulative IPC: 0.541393 (Simulation time: 2 hr 8 min 2 sec) 
Heartbeat CPU 0 instructions: 46000002 cycles: 70116806 heartbeat IPC: 0.644234 cumulative IPC: 0.543804 (Simulation time: 2 hr 10 min 39 sec) 
Heartbeat CPU 0 instructions: 47000001 cycles: 71732728 heartbeat IPC: 0.618841 cumulative IPC: 0.545592 (Simulation time: 2 hr 13 min 12 sec) 
Heartbeat CPU 0 instructions: 48000000 cycles: 73286086 heartbeat IPC: 0.643766 cumulative IPC: 0.547791 (Simulation time: 2 hr 15 min 47 sec) 
Heartbeat CPU 0 instructions: 49000001 cycles: 74841412 heartbeat IPC: 0.642953 cumulative IPC: 0.549877 (Simulation time: 2 hr 18 min 17 sec) 
Heartbeat CPU 0 instructions: 50000001 cycles: 76462109 heartbeat IPC: 0.617018 cumulative IPC: 0.551377 (Simulation time: 2 hr 20 min 51 sec) 
Heartbeat CPU 0 instructions: 51000002 cycles: 78025690 heartbeat IPC: 0.639558 cumulative IPC: 0.553238 (Simulation time: 2 hr 23 min 24 sec) 
Heartbeat CPU 0 instructions: 52000000 cycles: 79590899 heartbeat IPC: 0.638891 cumulative IPC: 0.55501 (Simulation time: 2 hr 25 min 58 sec) 
Heartbeat CPU 0 instructions: 53000001 cycles: 81163473 heartbeat IPC: 0.635901 cumulative IPC: 0.556656 (Simulation time: 2 hr 28 min 39 sec) 
Heartbeat CPU 0 instructions: 54000001 cycles: 82773260 heartbeat IPC: 0.6212 cumulative IPC: 0.557974 (Simulation time: 2 hr 31 min 13 sec) 
Heartbeat CPU 0 instructions: 55000003 cycles: 84337554 heartbeat IPC: 0.639267 cumulative IPC: 0.559555 (Simulation time: 2 hr 33 min 43 sec) 
Heartbeat CPU 0 instructions: 56000000 cycles: 85912827 heartbeat IPC: 0.634809 cumulative IPC: 0.561001 (Simulation time: 2 hr 36 min 25 sec) 
Heartbeat CPU 0 instructions: 57000001 cycles: 87558321 heartbeat IPC: 0.607721 cumulative IPC: 0.56192 (Simulation time: 2 hr 39 min 8 sec) 
Heartbeat CPU 0 instructions: 58000002 cycles: 89180896 heartbeat IPC: 0.616305 cumulative IPC: 0.562955 (Simulation time: 2 hr 41 min 49 sec) 
Heartbeat CPU 0 instructions: 59000001 cycles: 90724687 heartbeat IPC: 0.647755 cumulative IPC: 0.564463 (Simulation time: 2 hr 44 min 36 sec) 
Heartbeat CPU 0 instructions: 60000000 cycles: 92346927 heartbeat IPC: 0.616431 cumulative IPC: 0.565416 (Simulation time: 2 hr 47 min 11 sec) 
Heartbeat CPU 0 instructions: 61000003 cycles: 94015161 heartbeat IPC: 0.599438 cumulative IPC: 0.566046 (Simulation time: 2 hr 49 min 46 sec) 
Heartbeat CPU 0 instructions: 62000003 cycles: 95578064 heartbeat IPC: 0.639835 cumulative IPC: 0.567304 (Simulation time: 2 hr 52 min 26 sec) 
Heartbeat CPU 0 instructions: 63000000 cycles: 97217507 heartbeat IPC: 0.609961 cumulative IPC: 0.568054 (Simulation time: 2 hr 55 min 6 sec) 
Heartbeat CPU 0 instructions: 64000000 cycles: 98881547 heartbeat IPC: 0.600947 cumulative IPC: 0.56863 (Simulation time: 2 hr 57 min 58 sec) 
Heartbeat CPU 0 instructions: 65000003 cycles: 100489903 heartbeat IPC: 0.621755 cumulative IPC: 0.569515 (Simulation time: 3 hr 0 min 41 sec) 
Heartbeat CPU 0 instructions: 66000001 cycles: 102049643 heartbeat IPC: 0.641131 cumulative IPC: 0.570653 (Simulation time: 3 hr 3 min 22 sec) 
Heartbeat CPU 0 instructions: 67000001 cycles: 103710472 heartbeat IPC: 0.602109 cumulative IPC: 0.571177 (Simulation time: 3 hr 5 min 53 sec) 
Heartbeat CPU 0 instructions: 68000000 cycles: 105397483 heartbeat IPC: 0.592764 cumulative IPC: 0.571536 (Simulation time: 3 hr 8 min 29 sec) 
Heartbeat CPU 0 instructions: 69000003 cycles: 106953063 heartbeat IPC: 0.642849 cumulative IPC: 0.572612 (Simulation time: 3 hr 11 min 3 sec) 
Heartbeat CPU 0 instructions: 70000003 cycles: 108593103 heartbeat IPC: 0.609741 cumulative IPC: 0.573194 (Simulation time: 3 hr 13 min 32 sec) 
Heartbeat CPU 0 instructions: 71000000 cycles: 110351070 heartbeat IPC: 0.568837 cumulative IPC: 0.573122 (Simulation time: 3 hr 16 min 10 sec) 
Heartbeat CPU 0 instructions: 72000000 cycles: 111908723 heartbeat IPC: 0.641991 cumulative IPC: 0.574116 (Simulation time: 3 hr 18 min 34 sec) 
Heartbeat CPU 0 instructions: 73000003 cycles: 113530017 heartbeat IPC: 0.616793 cumulative IPC: 0.574747 (Simulation time: 3 hr 21 min 2 sec) 
Heartbeat CPU 0 instructions: 74000002 cycles: 115322680 heartbeat IPC: 0.557829 cumulative IPC: 0.574475 (Simulation time: 3 hr 23 min 38 sec) 
Heartbeat CPU 0 instructions: 75000002 cycles: 116891034 heartbeat IPC: 0.637611 cumulative IPC: 0.575351 (Simulation time: 3 hr 26 min 18 sec) 
Heartbeat CPU 0 instructions: 76000000 cycles: 118520923 heartbeat IPC: 0.613537 cumulative IPC: 0.575894 (Simulation time: 3 hr 28 min 52 sec) 
Heartbeat CPU 0 instructions: 77000001 cycles: 120340530 heartbeat IPC: 0.54957 cumulative IPC: 0.575483 (Simulation time: 3 hr 31 min 31 sec) 
Heartbeat CPU 0 instructions: 78000002 cycles: 121919201 heartbeat IPC: 0.633445 cumulative IPC: 0.576258 (Simulation time: 3 hr 34 min 0 sec) 
Heartbeat CPU 0 instructions: 79000000 cycles: 123550015 heartbeat IPC: 0.613189 cumulative IPC: 0.576762 (Simulation time: 3 hr 36 min 34 sec) 
Heartbeat CPU 0 instructions: 80000000 cycles: 125355992 heartbeat IPC: 0.553717 cumulative IPC: 0.576419 (Simulation time: 3 hr 39 min 17 sec) 
Heartbeat CPU 0 instructions: 81000003 cycles: 126952636 heartbeat IPC: 0.626316 cumulative IPC: 0.577066 (Simulation time: 3 hr 41 min 47 sec) 
Heartbeat CPU 0 instructions: 82000001 cycles: 128590662 heartbeat IPC: 0.61049 cumulative IPC: 0.577505 (Simulation time: 3 hr 44 min 23 sec) 
Heartbeat CPU 0 instructions: 83000001 cycles: 130374598 heartbeat IPC: 0.560558 cumulative IPC: 0.577266 (Simulation time: 3 hr 46 min 58 sec) 
Heartbeat CPU 0 instructions: 84000000 cycles: 132034128 heartbeat IPC: 0.60258 cumulative IPC: 0.577594 (Simulation time: 3 hr 49 min 30 sec) 
Heartbeat CPU 0 instructions: 85000002 cycles: 133587748 heartbeat IPC: 0.643659 cumulative IPC: 0.578386 (Simulation time: 3 hr 51 min 42 sec) 
Heartbeat CPU 0 instructions: 86000001 cycles: 135429300 heartbeat IPC: 0.54302 cumulative IPC: 0.577891 (Simulation time: 3 hr 54 min 23 sec) 
Heartbeat CPU 0 instructions: 87000003 cycles: 137121162 heartbeat IPC: 0.591066 cumulative IPC: 0.578058 (Simulation time: 3 hr 56 min 58 sec) 
Heartbeat CPU 0 instructions: 88000000 cycles: 138665335 heartbeat IPC: 0.647594 cumulative IPC: 0.578855 (Simulation time: 3 hr 59 min 29 sec) 
Heartbeat CPU 0 instructions: 89000003 cycles: 140485136 heartbeat IPC: 0.549512 cumulative IPC: 0.578464 (Simulation time: 4 hr 2 min 16 sec) 
Heartbeat CPU 0 instructions: 90000001 cycles: 142205991 heartbeat IPC: 0.581105 cumulative IPC: 0.578497 (Simulation time: 4 hr 4 min 43 sec) 
Heartbeat CPU 0 instructions: 91000000 cycles: 143759311 heartbeat IPC: 0.643782 cumulative IPC: 0.579222 (Simulation time: 4 hr 7 min 6 sec) 
Heartbeat CPU 0 instructions: 92000000 cycles: 145595328 heartbeat IPC: 0.544657 cumulative IPC: 0.578774 (Simulation time: 4 hr 9 min 47 sec) 
Heartbeat CPU 0 instructions: 93000003 cycles: 147332737 heartbeat IPC: 0.575571 cumulative IPC: 0.578735 (Simulation time: 4 hr 12 min 29 sec) 
Heartbeat CPU 0 instructions: 94000002 cycles: 148870307 heartbeat IPC: 0.650376 cumulative IPC: 0.579495 (Simulation time: 4 hr 14 min 47 sec) 
Heartbeat CPU 0 instructions: 95000001 cycles: 150660316 heartbeat IPC: 0.558656 cumulative IPC: 0.579241 (Simulation time: 4 hr 17 min 18 sec) 
Heartbeat CPU 0 instructions: 96000000 cycles: 152410519 heartbeat IPC: 0.571362 cumulative IPC: 0.579148 (Simulation time: 4 hr 19 min 43 sec) 
Heartbeat CPU 0 instructions: 97000002 cycles: 153976545 heartbeat IPC: 0.63856 cumulative IPC: 0.579768 (Simulation time: 4 hr 21 min 51 sec) 
Heartbeat CPU 0 instructions: 98000000 cycles: 155828314 heartbeat IPC: 0.540023 cumulative IPC: 0.579284 (Simulation time: 4 hr 24 min 6 sec) 
Heartbeat CPU 0 instructions: 99000001 cycles: 157587610 heartbeat IPC: 0.56841 cumulative IPC: 0.579159 (Simulation time: 4 hr 26 min 14 sec) 
Heartbeat CPU 0 instructions: 100000000 cycles: 159144808 heartbeat IPC: 0.642178 cumulative IPC: 0.579791 (Simulation time: 4 hr 28 min 13 sec) 
Heartbeat CPU 0 instructions: 101000002 cycles: 161026531 heartbeat IPC: 0.531429 cumulative IPC: 0.579212 (Simulation time: 4 hr 30 min 10 sec) 
Heartbeat CPU 0 instructions: 102000002 cycles: 162797517 heartbeat IPC: 0.564657 cumulative IPC: 0.57905 (Simulation time: 4 hr 31 min 54 sec) 
Heartbeat CPU 0 instructions: 103000001 cycles: 164373362 heartbeat IPC: 0.63458 cumulative IPC: 0.579595 (Simulation time: 4 hr 33 min 32 sec) 
Heartbeat CPU 0 instructions: 104000000 cycles: 166251695 heartbeat IPC: 0.532386 cumulative IPC: 0.579049 (Simulation time: 4 hr 35 min 16 sec) 
Heartbeat CPU 0 instructions: 105000001 cycles: 168002439 heartbeat IPC: 0.571186 cumulative IPC: 0.578965 (Simulation time: 4 hr 36 min 47 sec) 
Heartbeat CPU 0 instructions: 106000001 cycles: 169583528 heartbeat IPC: 0.632475 cumulative IPC: 0.579476 (Simulation time: 4 hr 38 min 12 sec) 
Heartbeat CPU 0 instructions: 107000001 cycles: 171477284 heartbeat IPC: 0.528051 cumulative IPC: 0.578894 (Simulation time: 4 hr 39 min 46 sec) 
Heartbeat CPU 0 instructions: 108000000 cycles: 173218687 heartbeat IPC: 0.574249 cumulative IPC: 0.578847 (Simulation time: 4 hr 41 min 16 sec) 
Heartbeat CPU 0 instructions: 109000003 cycles: 174771794 heartbeat IPC: 0.643873 cumulative IPC: 0.579438 (Simulation time: 4 hr 42 min 41 sec) 
Heartbeat CPU 0 instructions: 110000001 cycles: 176710809 heartbeat IPC: 0.515725 cumulative IPC: 0.578723 (Simulation time: 4 hr 44 min 13 sec) 
Finished CPU 0 instructions: 100000003 cycles: 172794285 cummulative IPC: 0.578723 (Simulation time: 4 hr 44 min 13 sec) 

ChampSim completed all CPUs

Region of Interest Statistics

CPU 0 cummulative IPC: 0.578723 instructions: 100000003 cycles: 172794285
LLC TOTAL     ACCESS:    6084483  HIT:          0  MISS:    6084483
LLC LOAD      ACCESS:     453715  HIT:          0  MISS:     453715
LLC RFO       ACCESS:    2591727  HIT:          0  MISS:    2591727
LLC PREFETCH  ACCESS:     447091  HIT:          0  MISS:     447091
LLC WRITEBACK ACCESS:    2591950  HIT:          0  MISS:    2591950
