
*** ChampSim Multicore Out-of-Order Simulator ***

Warmup Instructions: 10000000
Simulation Instructions: 100000000
Configuration: 2
Number of CPUs: 1
LLC sets: 2048
LLC ways: 16
Off-chip DRAM Channels: 1 Width: 64-bit Data Rate: 1600 MT/s

CPU 0 runs /datasets/cs240c-wi22-a00-public/data/Assignment2-gz/soplex_217B.trace.gz
CPU 0 L1D next line prefetcher
CPU 0 L2C IP-based stride prefetcher
config 2, num_core 1, llc_sets 2048
Heartbeat CPU 0 instructions: 1000002 cycles: 442756 heartbeat IPC: 2.25858 cumulative IPC: 2.25858 (Simulation time: 0 hr 2 min 40 sec) 
Heartbeat CPU 0 instructions: 2000003 cycles: 802230 heartbeat IPC: 2.78185 cumulative IPC: 2.49305 (Simulation time: 0 hr 5 min 11 sec) 
Heartbeat CPU 0 instructions: 3000002 cycles: 1247485 heartbeat IPC: 2.2459 cumulative IPC: 2.40484 (Simulation time: 0 hr 7 min 55 sec) 
Heartbeat CPU 0 instructions: 4000000 cycles: 1676711 heartbeat IPC: 2.32977 cumulative IPC: 2.38562 (Simulation time: 0 hr 10 min 32 sec) 
Heartbeat CPU 0 instructions: 5000001 cycles: 2060767 heartbeat IPC: 2.60379 cumulative IPC: 2.42628 (Simulation time: 0 hr 12 min 45 sec) 
Heartbeat CPU 0 instructions: 6000000 cycles: 2434886 heartbeat IPC: 2.67294 cumulative IPC: 2.46418 (Simulation time: 0 hr 14 min 49 sec) 
Heartbeat CPU 0 instructions: 7000003 cycles: 2955257 heartbeat IPC: 1.92171 cumulative IPC: 2.36866 (Simulation time: 0 hr 17 min 20 sec) 
Heartbeat CPU 0 instructions: 8000000 cycles: 3402375 heartbeat IPC: 2.23654 cumulative IPC: 2.3513 (Simulation time: 0 hr 20 min 6 sec) 
Heartbeat CPU 0 instructions: 9000001 cycles: 3826714 heartbeat IPC: 2.35661 cumulative IPC: 2.35189 (Simulation time: 0 hr 22 min 27 sec) 
Heartbeat CPU 0 instructions: 10000000 cycles: 4239551 heartbeat IPC: 2.42226 cumulative IPC: 2.35874 (Simulation time: 0 hr 24 min 53 sec) 

Warmup complete CPU 0 instructions: 10000004 cycles: 4239552 (Simulation time: 0 hr 24 min 53 sec) 

Heartbeat CPU 0 instructions: 11000002 cycles: 8942070 heartbeat IPC: 0.212652 cumulative IPC: 0.212652 (Simulation time: 0 hr 28 min 49 sec) 
Heartbeat CPU 0 instructions: 12000000 cycles: 12214978 heartbeat IPC: 0.305538 cumulative IPC: 0.25077 (Simulation time: 0 hr 31 min 51 sec) 
Heartbeat CPU 0 instructions: 13000000 cycles: 13692300 heartbeat IPC: 0.676901 cumulative IPC: 0.317368 (Simulation time: 0 hr 33 min 50 sec) 
Heartbeat CPU 0 instructions: 14000000 cycles: 16565697 heartbeat IPC: 0.34802 cumulative IPC: 0.324513 (Simulation time: 0 hr 36 min 33 sec) 
Heartbeat CPU 0 instructions: 15000000 cycles: 20033354 heartbeat IPC: 0.288379 cumulative IPC: 0.31658 (Simulation time: 0 hr 39 min 48 sec) 
Heartbeat CPU 0 instructions: 16000000 cycles: 24928508 heartbeat IPC: 0.204284 cumulative IPC: 0.29001 (Simulation time: 0 hr 43 min 51 sec) 
Heartbeat CPU 0 instructions: 17000002 cycles: 27886526 heartbeat IPC: 0.338065 cumulative IPC: 0.296021 (Simulation time: 0 hr 46 min 45 sec) 
Heartbeat CPU 0 instructions: 18000002 cycles: 31077753 heartbeat IPC: 0.313359 cumulative IPC: 0.298083 (Simulation time: 0 hr 50 min 7 sec) 
Heartbeat CPU 0 instructions: 19000000 cycles: 35768220 heartbeat IPC: 0.213198 cumulative IPC: 0.285454 (Simulation time: 0 hr 53 min 49 sec) 
Heartbeat CPU 0 instructions: 20000000 cycles: 37293850 heartbeat IPC: 0.655467 cumulative IPC: 0.302532 (Simulation time: 0 hr 55 min 57 sec) 
Heartbeat CPU 0 instructions: 21000000 cycles: 38875204 heartbeat IPC: 0.632369 cumulative IPC: 0.317592 (Simulation time: 0 hr 58 min 13 sec) 
Heartbeat CPU 0 instructions: 22000001 cycles: 42486787 heartbeat IPC: 0.276887 cumulative IPC: 0.313748 (Simulation time: 1 hr 1 min 26 sec) 
Heartbeat CPU 0 instructions: 23000003 cycles: 47555349 heartbeat IPC: 0.197295 cumulative IPC: 0.300121 (Simulation time: 1 hr 5 min 40 sec) 
Heartbeat CPU 0 instructions: 24000000 cycles: 51474006 heartbeat IPC: 0.255189 cumulative IPC: 0.296394 (Simulation time: 1 hr 9 min 28 sec) 
Heartbeat CPU 0 instructions: 25000001 cycles: 53396629 heartbeat IPC: 0.520123 cumulative IPC: 0.305144 (Simulation time: 1 hr 12 min 30 sec) 
Heartbeat CPU 0 instructions: 26000001 cycles: 58359819 heartbeat IPC: 0.201483 cumulative IPC: 0.295638 (Simulation time: 1 hr 16 min 58 sec) 
Heartbeat CPU 0 instructions: 27000002 cycles: 61419014 heartbeat IPC: 0.326884 cumulative IPC: 0.29731 (Simulation time: 1 hr 20 min 9 sec) 
Heartbeat CPU 0 instructions: 28000000 cycles: 62903764 heartbeat IPC: 0.673513 cumulative IPC: 0.306831 (Simulation time: 1 hr 22 min 20 sec) 
Heartbeat CPU 0 instructions: 29000002 cycles: 65887327 heartbeat IPC: 0.33517 cumulative IPC: 0.308203 (Simulation time: 1 hr 25 min 5 sec) 
Heartbeat CPU 0 instructions: 30000002 cycles: 69424033 heartbeat IPC: 0.282749 cumulative IPC: 0.306821 (Simulation time: 1 hr 28 min 38 sec) 
Heartbeat CPU 0 instructions: 31000000 cycles: 73974172 heartbeat IPC: 0.219773 cumulative IPC: 0.301142 (Simulation time: 1 hr 32 min 42 sec) 
Heartbeat CPU 0 instructions: 32000000 cycles: 76218847 heartbeat IPC: 0.445499 cumulative IPC: 0.305643 (Simulation time: 1 hr 35 min 43 sec) 
Heartbeat CPU 0 instructions: 33000001 cycles: 80661385 heartbeat IPC: 0.225097 cumulative IPC: 0.300961 (Simulation time: 1 hr 39 min 52 sec) 
Heartbeat CPU 0 instructions: 34000000 cycles: 84228698 heartbeat IPC: 0.280323 cumulative IPC: 0.300041 (Simulation time: 1 hr 43 min 21 sec) 
Heartbeat CPU 0 instructions: 35000002 cycles: 85732706 heartbeat IPC: 0.664891 cumulative IPC: 0.306774 (Simulation time: 1 hr 45 min 35 sec) 
Heartbeat CPU 0 instructions: 36000000 cycles: 88199719 heartbeat IPC: 0.405348 cumulative IPC: 0.309671 (Simulation time: 1 hr 48 min 5 sec) 
Heartbeat CPU 0 instructions: 37000002 cycles: 91233547 heartbeat IPC: 0.329617 cumulative IPC: 0.310366 (Simulation time: 1 hr 51 min 21 sec) 
Heartbeat CPU 0 instructions: 38000000 cycles: 96480989 heartbeat IPC: 0.190569 cumulative IPC: 0.303551 (Simulation time: 1 hr 55 min 52 sec) 
Heartbeat CPU 0 instructions: 39000001 cycles: 99012880 heartbeat IPC: 0.394962 cumulative IPC: 0.305993 (Simulation time: 1 hr 59 min 14 sec) 
Heartbeat CPU 0 instructions: 40000000 cycles: 103044041 heartbeat IPC: 0.248067 cumulative IPC: 0.30363 (Simulation time: 2 hr 3 min 45 sec) 
Heartbeat CPU 0 instructions: 41000000 cycles: 106994443 heartbeat IPC: 0.253139 cumulative IPC: 0.301689 (Simulation time: 2 hr 7 min 43 sec) 
Heartbeat CPU 0 instructions: 42000002 cycles: 108513649 heartbeat IPC: 0.65824 cumulative IPC: 0.306883 (Simulation time: 2 hr 9 min 49 sec) 
Heartbeat CPU 0 instructions: 43000001 cycles: 110517168 heartbeat IPC: 0.499121 cumulative IPC: 0.310508 (Simulation time: 2 hr 12 min 22 sec) 
Heartbeat CPU 0 instructions: 44000000 cycles: 113709630 heartbeat IPC: 0.313238 cumulative IPC: 0.310587 (Simulation time: 2 hr 15 min 39 sec) 
Heartbeat CPU 0 instructions: 45000003 cycles: 118988697 heartbeat IPC: 0.189428 cumulative IPC: 0.305013 (Simulation time: 2 hr 20 min 4 sec) 
Heartbeat CPU 0 instructions: 46000000 cycles: 122469886 heartbeat IPC: 0.287257 cumulative IPC: 0.30449 (Simulation time: 2 hr 23 min 59 sec) 
Heartbeat CPU 0 instructions: 47000001 cycles: 124603559 heartbeat IPC: 0.468676 cumulative IPC: 0.307401 (Simulation time: 2 hr 27 min 7 sec) 
Heartbeat CPU 0 instructions: 48000000 cycles: 129264372 heartbeat IPC: 0.214555 cumulative IPC: 0.30394 (Simulation time: 2 hr 31 min 54 sec) 
Heartbeat CPU 0 instructions: 49000000 cycles: 132633326 heartbeat IPC: 0.296828 cumulative IPC: 0.303753 (Simulation time: 2 hr 35 min 21 sec) 
Heartbeat CPU 0 instructions: 50000001 cycles: 134135581 heartbeat IPC: 0.665667 cumulative IPC: 0.307939 (Simulation time: 2 hr 37 min 43 sec) 
Heartbeat CPU 0 instructions: 51000000 cycles: 136957288 heartbeat IPC: 0.354395 cumulative IPC: 0.308926 (Simulation time: 2 hr 40 min 37 sec) 
Heartbeat CPU 0 instructions: 52000000 cycles: 140268127 heartbeat IPC: 0.302038 cumulative IPC: 0.308759 (Simulation time: 2 hr 44 min 23 sec) 
Heartbeat CPU 0 instructions: 53000000 cycles: 145053793 heartbeat IPC: 0.208957 cumulative IPC: 0.305367 (Simulation time: 2 hr 48 min 42 sec) 
Heartbeat CPU 0 instructions: 54000000 cycles: 147422201 heartbeat IPC: 0.422225 cumulative IPC: 0.3073 (Simulation time: 2 hr 51 min 48 sec) 
Heartbeat CPU 0 instructions: 55000000 cycles: 151715742 heartbeat IPC: 0.232908 cumulative IPC: 0.305134 (Simulation time: 2 hr 56 min 12 sec) 
Heartbeat CPU 0 instructions: 56000000 cycles: 155409989 heartbeat IPC: 0.270691 cumulative IPC: 0.304292 (Simulation time: 3 hr 0 min 2 sec) 
Heartbeat CPU 0 instructions: 57000003 cycles: 156920299 heartbeat IPC: 0.662118 cumulative IPC: 0.307832 (Simulation time: 3 hr 2 min 21 sec) 
Heartbeat CPU 0 instructions: 58000000 cycles: 159332807 heartbeat IPC: 0.414505 cumulative IPC: 0.309491 (Simulation time: 3 hr 5 min 7 sec) 
Heartbeat CPU 0 instructions: 59000003 cycles: 162318712 heartbeat IPC: 0.334908 cumulative IPC: 0.309971 (Simulation time: 3 hr 8 min 19 sec) 
Heartbeat CPU 0 instructions: 60000000 cycles: 167446455 heartbeat IPC: 0.195017 cumulative IPC: 0.30636 (Simulation time: 3 hr 12 min 56 sec) 
Heartbeat CPU 0 instructions: 61000000 cycles: 170228577 heartbeat IPC: 0.359438 cumulative IPC: 0.307249 (Simulation time: 3 hr 16 min 26 sec) 
Heartbeat CPU 0 instructions: 62000000 cycles: 173655460 heartbeat IPC: 0.29181 cumulative IPC: 0.306937 (Simulation time: 3 hr 20 min 42 sec) 
Heartbeat CPU 0 instructions: 63000001 cycles: 178169831 heartbeat IPC: 0.221515 cumulative IPC: 0.30472 (Simulation time: 3 hr 25 min 15 sec) 
Heartbeat CPU 0 instructions: 64000000 cycles: 179692384 heartbeat IPC: 0.656791 cumulative IPC: 0.307775 (Simulation time: 3 hr 27 min 29 sec) 
Heartbeat CPU 0 instructions: 65000000 cycles: 181371706 heartbeat IPC: 0.595478 cumulative IPC: 0.310503 (Simulation time: 3 hr 30 min 0 sec) 
Heartbeat CPU 0 instructions: 66000002 cycles: 184894791 heartbeat IPC: 0.283843 cumulative IPC: 0.309983 (Simulation time: 3 hr 33 min 38 sec) 
Heartbeat CPU 0 instructions: 67000000 cycles: 189801735 heartbeat IPC: 0.203792 cumulative IPC: 0.307175 (Simulation time: 3 hr 38 min 2 sec) 
Heartbeat CPU 0 instructions: 68000000 cycles: 196130783 heartbeat IPC: 0.158002 cumulative IPC: 0.302255 (Simulation time: 3 hr 42 min 27 sec) 
Heartbeat CPU 0 instructions: 69000001 cycles: 200848222 heartbeat IPC: 0.21198 cumulative IPC: 0.300088 (Simulation time: 3 hr 46 min 34 sec) 
Heartbeat CPU 0 instructions: 70000002 cycles: 205439724 heartbeat IPC: 0.217794 cumulative IPC: 0.29821 (Simulation time: 3 hr 50 min 47 sec) 
Heartbeat CPU 0 instructions: 71000002 cycles: 210637101 heartbeat IPC: 0.192405 cumulative IPC: 0.295546 (Simulation time: 3 hr 55 min 1 sec) 
Heartbeat CPU 0 instructions: 72000000 cycles: 214637859 heartbeat IPC: 0.249952 cumulative IPC: 0.294679 (Simulation time: 3 hr 58 min 48 sec) 
Heartbeat CPU 0 instructions: 73000000 cycles: 218799819 heartbeat IPC: 0.240271 cumulative IPC: 0.293624 (Simulation time: 4 hr 2 min 42 sec) 
Heartbeat CPU 0 instructions: 74000000 cycles: 224782699 heartbeat IPC: 0.167144 cumulative IPC: 0.290193 (Simulation time: 4 hr 6 min 21 sec) 
Heartbeat CPU 0 instructions: 75000002 cycles: 233033457 heartbeat IPC: 0.121201 cumulative IPC: 0.284098 (Simulation time: 4 hr 11 min 13 sec) 
Heartbeat CPU 0 instructions: 76000000 cycles: 237215486 heartbeat IPC: 0.239118 cumulative IPC: 0.283291 (Simulation time: 4 hr 14 min 39 sec) 
Heartbeat CPU 0 instructions: 77000000 cycles: 243546972 heartbeat IPC: 0.157941 cumulative IPC: 0.279975 (Simulation time: 4 hr 19 min 11 sec) 
Heartbeat CPU 0 instructions: 78000002 cycles: 247208918 heartbeat IPC: 0.273079 cumulative IPC: 0.279871 (Simulation time: 4 hr 22 min 36 sec) 
Heartbeat CPU 0 instructions: 79000003 cycles: 249782623 heartbeat IPC: 0.388545 cumulative IPC: 0.28101 (Simulation time: 4 hr 25 min 42 sec) 
Heartbeat CPU 0 instructions: 80000000 cycles: 251532283 heartbeat IPC: 0.571538 cumulative IPC: 0.283065 (Simulation time: 4 hr 27 min 56 sec) 
Heartbeat CPU 0 instructions: 81000003 cycles: 255050766 heartbeat IPC: 0.284214 cumulative IPC: 0.283081 (Simulation time: 4 hr 30 min 52 sec) 
Heartbeat CPU 0 instructions: 82000001 cycles: 260251644 heartbeat IPC: 0.192275 cumulative IPC: 0.281237 (Simulation time: 4 hr 33 min 57 sec) 
Heartbeat CPU 0 instructions: 83000002 cycles: 264635976 heartbeat IPC: 0.228085 cumulative IPC: 0.280342 (Simulation time: 4 hr 36 min 16 sec) 
Heartbeat CPU 0 instructions: 84000000 cycles: 267118063 heartbeat IPC: 0.402886 cumulative IPC: 0.281499 (Simulation time: 4 hr 37 min 56 sec) 
Heartbeat CPU 0 instructions: 85000000 cycles: 269220610 heartbeat IPC: 0.475614 cumulative IPC: 0.283039 (Simulation time: 4 hr 39 min 33 sec) 
Heartbeat CPU 0 instructions: 86000000 cycles: 273907080 heartbeat IPC: 0.21338 cumulative IPC: 0.281828 (Simulation time: 4 hr 42 min 1 sec) 
Heartbeat CPU 0 instructions: 87000000 cycles: 277234719 heartbeat IPC: 0.300513 cumulative IPC: 0.282056 (Simulation time: 4 hr 43 min 36 sec) 
Heartbeat CPU 0 instructions: 88000000 cycles: 278733889 heartbeat IPC: 0.667036 cumulative IPC: 0.284159 (Simulation time: 4 hr 44 min 34 sec) 
Heartbeat CPU 0 instructions: 89000003 cycles: 281618761 heartbeat IPC: 0.346637 cumulative IPC: 0.284809 (Simulation time: 4 hr 45 min 49 sec) 
Heartbeat CPU 0 instructions: 90000002 cycles: 284987837 heartbeat IPC: 0.296817 cumulative IPC: 0.284953 (Simulation time: 4 hr 47 min 22 sec) 
Heartbeat CPU 0 instructions: 91000001 cycles: 289737832 heartbeat IPC: 0.210526 cumulative IPC: 0.283714 (Simulation time: 4 hr 48 min 56 sec) 
Heartbeat CPU 0 instructions: 92000000 cycles: 292076101 heartbeat IPC: 0.427666 cumulative IPC: 0.284884 (Simulation time: 4 hr 50 min 7 sec) 
Heartbeat CPU 0 instructions: 93000000 cycles: 296432644 heartbeat IPC: 0.22954 cumulative IPC: 0.284059 (Simulation time: 4 hr 51 min 38 sec) 
Heartbeat CPU 0 instructions: 94000001 cycles: 300093069 heartbeat IPC: 0.273193 cumulative IPC: 0.283924 (Simulation time: 4 hr 52 min 45 sec) 
Heartbeat CPU 0 instructions: 95000003 cycles: 301602794 heartbeat IPC: 0.662374 cumulative IPC: 0.285846 (Simulation time: 4 hr 53 min 22 sec) 
Heartbeat CPU 0 instructions: 96000000 cycles: 304081797 heartbeat IPC: 0.403387 cumulative IPC: 0.286817 (Simulation time: 4 hr 54 min 8 sec) 
Heartbeat CPU 0 instructions: 97000002 cycles: 306904966 heartbeat IPC: 0.354213 cumulative IPC: 0.287446 (Simulation time: 4 hr 54 min 56 sec) 
Heartbeat CPU 0 instructions: 98000003 cycles: 312565729 heartbeat IPC: 0.176655 cumulative IPC: 0.285412 (Simulation time: 4 hr 56 min 0 sec) 
Heartbeat CPU 0 instructions: 99000000 cycles: 316243885 heartbeat IPC: 0.271875 cumulative IPC: 0.285252 (Simulation time: 4 hr 56 min 43 sec) 
Heartbeat CPU 0 instructions: 100000000 cycles: 318602865 heartbeat IPC: 0.423912 cumulative IPC: 0.286293 (Simulation time: 4 hr 57 min 21 sec) 
Heartbeat CPU 0 instructions: 101000001 cycles: 323855812 heartbeat IPC: 0.19037 cumulative IPC: 0.284716 (Simulation time: 4 hr 58 min 9 sec) 
Heartbeat CPU 0 instructions: 102000000 cycles: 325736913 heartbeat IPC: 0.531603 cumulative IPC: 0.286161 (Simulation time: 4 hr 58 min 29 sec) 
Heartbeat CPU 0 instructions: 103000001 cycles: 327194690 heartbeat IPC: 0.685977 cumulative IPC: 0.287966 (Simulation time: 4 hr 58 min 48 sec) 
Heartbeat CPU 0 instructions: 104000000 cycles: 330827286 heartbeat IPC: 0.275285 cumulative IPC: 0.287825 (Simulation time: 4 hr 59 min 16 sec) 
Heartbeat CPU 0 instructions: 105000003 cycles: 335334288 heartbeat IPC: 0.221878 cumulative IPC: 0.286927 (Simulation time: 4 hr 59 min 47 sec) 
Heartbeat CPU 0 instructions: 106000000 cycles: 338909086 heartbeat IPC: 0.279735 cumulative IPC: 0.28685 (Simulation time: 5 hr 0 min 9 sec) 
Heartbeat CPU 0 instructions: 107000000 cycles: 341083953 heartbeat IPC: 0.459798 cumulative IPC: 0.287967 (Simulation time: 5 hr 0 min 31 sec) 
Heartbeat CPU 0 instructions: 108000000 cycles: 346230324 heartbeat IPC: 0.194312 cumulative IPC: 0.286557 (Simulation time: 5 hr 0 min 58 sec) 
Heartbeat CPU 0 instructions: 109000000 cycles: 348508128 heartbeat IPC: 0.439019 cumulative IPC: 0.287566 (Simulation time: 5 hr 1 min 11 sec) 
Heartbeat CPU 0 instructions: 110000002 cycles: 349974244 heartbeat IPC: 0.682076 cumulative IPC: 0.289239 (Simulation time: 5 hr 1 min 22 sec) 
Finished CPU 0 instructions: 100000000 cycles: 345734696 cummulative IPC: 0.289239 (Simulation time: 5 hr 1 min 22 sec) 

ChampSim completed all CPUs

Region of Interest Statistics

CPU 0 cummulative IPC: 0.289239 instructions: 100000000 cycles: 345734696
LLC TOTAL     ACCESS:    8793244  HIT:          0  MISS:    8793244
LLC LOAD      ACCESS:    2289945  HIT:          0  MISS:    2289945
LLC RFO       ACCESS:     764874  HIT:          0  MISS:     764874
LLC PREFETCH  ACCESS:    3577969  HIT:          0  MISS:    3577969
LLC WRITEBACK ACCESS:    2160456  HIT:          0  MISS:    2160456
