
*** ChampSim Multicore Out-of-Order Simulator ***

Warmup Instructions: 10000000
Simulation Instructions: 100000000
Configuration: 2
Number of CPUs: 1
LLC sets: 2048
LLC ways: 16
Off-chip DRAM Channels: 1 Width: 64-bit Data Rate: 1600 MT/s

CPU 0 runs /datasets/cs240c-wi22-a00-public/data/Assignment2-gz/gcc_56B.trace.gz
CPU 0 L1D next line prefetcher
CPU 0 L2C IP-based stride prefetcher
config 2, num_core 1, llc_sets 2048
Heartbeat CPU 0 instructions: 1000003 cycles: 954459 heartbeat IPC: 1.04772 cumulative IPC: 1.04772 (Simulation time: 0 hr 3 min 6 sec) 
Heartbeat CPU 0 instructions: 2000001 cycles: 1898973 heartbeat IPC: 1.05874 cumulative IPC: 1.0532 (Simulation time: 0 hr 6 min 0 sec) 
Heartbeat CPU 0 instructions: 3000001 cycles: 2886532 heartbeat IPC: 1.0126 cumulative IPC: 1.03931 (Simulation time: 0 hr 8 min 53 sec) 
Heartbeat CPU 0 instructions: 4000000 cycles: 3849503 heartbeat IPC: 1.03845 cumulative IPC: 1.0391 (Simulation time: 0 hr 11 min 55 sec) 
Heartbeat CPU 0 instructions: 5000002 cycles: 4739277 heartbeat IPC: 1.12388 cumulative IPC: 1.05501 (Simulation time: 0 hr 14 min 25 sec) 
Heartbeat CPU 0 instructions: 6000000 cycles: 5687503 heartbeat IPC: 1.0546 cumulative IPC: 1.05494 (Simulation time: 0 hr 17 min 16 sec) 
Heartbeat CPU 0 instructions: 7000000 cycles: 6652114 heartbeat IPC: 1.03669 cumulative IPC: 1.0523 (Simulation time: 0 hr 20 min 7 sec) 
Heartbeat CPU 0 instructions: 8000000 cycles: 7613657 heartbeat IPC: 1.04 cumulative IPC: 1.05074 (Simulation time: 0 hr 23 min 1 sec) 
Heartbeat CPU 0 instructions: 9000000 cycles: 8625425 heartbeat IPC: 0.988369 cumulative IPC: 1.04343 (Simulation time: 0 hr 25 min 59 sec) 
Heartbeat CPU 0 instructions: 10000002 cycles: 9586249 heartbeat IPC: 1.04078 cumulative IPC: 1.04316 (Simulation time: 0 hr 28 min 54 sec) 

Warmup complete CPU 0 instructions: 10000002 cycles: 9586249 (Simulation time: 0 hr 28 min 54 sec) 

Heartbeat CPU 0 instructions: 11000000 cycles: 13238475 heartbeat IPC: 0.273805 cumulative IPC: 0.273805 (Simulation time: 0 hr 33 min 0 sec) 
Heartbeat CPU 0 instructions: 12000000 cycles: 16892651 heartbeat IPC: 0.273659 cumulative IPC: 0.273732 (Simulation time: 0 hr 37 min 9 sec) 
Heartbeat CPU 0 instructions: 13000001 cycles: 20732576 heartbeat IPC: 0.260422 cumulative IPC: 0.269147 (Simulation time: 0 hr 41 min 28 sec) 
Heartbeat CPU 0 instructions: 14000000 cycles: 24791096 heartbeat IPC: 0.246395 cumulative IPC: 0.263074 (Simulation time: 0 hr 45 min 50 sec) 
Heartbeat CPU 0 instructions: 15000003 cycles: 28708682 heartbeat IPC: 0.25526 cumulative IPC: 0.261473 (Simulation time: 0 hr 50 min 8 sec) 
Heartbeat CPU 0 instructions: 16000000 cycles: 32791829 heartbeat IPC: 0.244908 cumulative IPC: 0.258558 (Simulation time: 0 hr 54 min 39 sec) 
Heartbeat CPU 0 instructions: 17000001 cycles: 36777521 heartbeat IPC: 0.250898 cumulative IPC: 0.257436 (Simulation time: 0 hr 59 min 4 sec) 
Heartbeat CPU 0 instructions: 18000000 cycles: 40482158 heartbeat IPC: 0.269932 cumulative IPC: 0.258934 (Simulation time: 1 hr 3 min 26 sec) 
Heartbeat CPU 0 instructions: 19000000 cycles: 44290333 heartbeat IPC: 0.262593 cumulative IPC: 0.259335 (Simulation time: 1 hr 7 min 39 sec) 
Heartbeat CPU 0 instructions: 20000000 cycles: 48156035 heartbeat IPC: 0.258685 cumulative IPC: 0.25927 (Simulation time: 1 hr 11 min 57 sec) 
Heartbeat CPU 0 instructions: 21000000 cycles: 52084275 heartbeat IPC: 0.254567 cumulative IPC: 0.258835 (Simulation time: 1 hr 16 min 21 sec) 
Heartbeat CPU 0 instructions: 22000000 cycles: 56139860 heartbeat IPC: 0.246574 cumulative IPC: 0.257767 (Simulation time: 1 hr 20 min 41 sec) 
Heartbeat CPU 0 instructions: 23000000 cycles: 59918450 heartbeat IPC: 0.264649 cumulative IPC: 0.258284 (Simulation time: 1 hr 25 min 5 sec) 
Heartbeat CPU 0 instructions: 24000000 cycles: 63685953 heartbeat IPC: 0.265428 cumulative IPC: 0.258781 (Simulation time: 1 hr 29 min 23 sec) 
Heartbeat CPU 0 instructions: 25000000 cycles: 67541088 heartbeat IPC: 0.259394 cumulative IPC: 0.258822 (Simulation time: 1 hr 33 min 51 sec) 
Heartbeat CPU 0 instructions: 26000002 cycles: 71316103 heartbeat IPC: 0.2649 cumulative IPC: 0.259194 (Simulation time: 1 hr 38 min 16 sec) 
Heartbeat CPU 0 instructions: 27000000 cycles: 75227170 heartbeat IPC: 0.255684 cumulative IPC: 0.258985 (Simulation time: 1 hr 42 min 36 sec) 
Heartbeat CPU 0 instructions: 28000000 cycles: 79306209 heartbeat IPC: 0.245156 cumulative IPC: 0.258176 (Simulation time: 1 hr 47 min 4 sec) 
Heartbeat CPU 0 instructions: 29000000 cycles: 83397129 heartbeat IPC: 0.244444 cumulative IPC: 0.257415 (Simulation time: 1 hr 51 min 43 sec) 
Heartbeat CPU 0 instructions: 30000000 cycles: 87395878 heartbeat IPC: 0.250078 cumulative IPC: 0.257038 (Simulation time: 1 hr 56 min 16 sec) 
Heartbeat CPU 0 instructions: 31000000 cycles: 91153119 heartbeat IPC: 0.266153 cumulative IPC: 0.257457 (Simulation time: 2 hr 0 min 25 sec) 
Heartbeat CPU 0 instructions: 32000000 cycles: 94909012 heartbeat IPC: 0.266248 cumulative IPC: 0.257844 (Simulation time: 2 hr 4 min 31 sec) 
Heartbeat CPU 0 instructions: 33000002 cycles: 98713715 heartbeat IPC: 0.262833 cumulative IPC: 0.258057 (Simulation time: 2 hr 8 min 35 sec) 
Heartbeat CPU 0 instructions: 34000002 cycles: 102673206 heartbeat IPC: 0.252558 cumulative IPC: 0.257823 (Simulation time: 2 hr 12 min 43 sec) 
Heartbeat CPU 0 instructions: 35000002 cycles: 106614361 heartbeat IPC: 0.253733 cumulative IPC: 0.257657 (Simulation time: 2 hr 16 min 58 sec) 
Heartbeat CPU 0 instructions: 36000000 cycles: 110684324 heartbeat IPC: 0.245702 cumulative IPC: 0.257176 (Simulation time: 2 hr 21 min 13 sec) 
Heartbeat CPU 0 instructions: 37000000 cycles: 114617886 heartbeat IPC: 0.254223 cumulative IPC: 0.257065 (Simulation time: 2 hr 25 min 29 sec) 
Heartbeat CPU 0 instructions: 38000002 cycles: 118522205 heartbeat IPC: 0.256127 cumulative IPC: 0.257032 (Simulation time: 2 hr 29 min 47 sec) 
Heartbeat CPU 0 instructions: 39000000 cycles: 122263528 heartbeat IPC: 0.267285 cumulative IPC: 0.257372 (Simulation time: 2 hr 33 min 39 sec) 
Heartbeat CPU 0 instructions: 40000000 cycles: 126146676 heartbeat IPC: 0.257523 cumulative IPC: 0.257377 (Simulation time: 2 hr 38 min 3 sec) 
Heartbeat CPU 0 instructions: 41000001 cycles: 130149902 heartbeat IPC: 0.249799 cumulative IPC: 0.257126 (Simulation time: 2 hr 42 min 44 sec) 
Heartbeat CPU 0 instructions: 42000003 cycles: 134192911 heartbeat IPC: 0.247341 cumulative IPC: 0.256808 (Simulation time: 2 hr 47 min 14 sec) 
Heartbeat CPU 0 instructions: 43000001 cycles: 138134558 heartbeat IPC: 0.253701 cumulative IPC: 0.256713 (Simulation time: 2 hr 51 min 46 sec) 
Heartbeat CPU 0 instructions: 44000000 cycles: 141964398 heartbeat IPC: 0.261107 cumulative IPC: 0.25684 (Simulation time: 2 hr 56 min 5 sec) 
Heartbeat CPU 0 instructions: 45000000 cycles: 145702603 heartbeat IPC: 0.267508 cumulative IPC: 0.257133 (Simulation time: 3 hr 0 min 27 sec) 
Heartbeat CPU 0 instructions: 46000000 cycles: 149607486 heartbeat IPC: 0.25609 cumulative IPC: 0.257104 (Simulation time: 3 hr 5 min 0 sec) 
Heartbeat CPU 0 instructions: 47000002 cycles: 153532642 heartbeat IPC: 0.254767 cumulative IPC: 0.25704 (Simulation time: 3 hr 9 min 25 sec) 
Heartbeat CPU 0 instructions: 48000000 cycles: 157541076 heartbeat IPC: 0.249473 cumulative IPC: 0.256835 (Simulation time: 3 hr 14 min 25 sec) 
Heartbeat CPU 0 instructions: 49000002 cycles: 161635140 heartbeat IPC: 0.244257 cumulative IPC: 0.256496 (Simulation time: 3 hr 19 min 27 sec) 
Heartbeat CPU 0 instructions: 50000000 cycles: 165652289 heartbeat IPC: 0.248932 cumulative IPC: 0.256302 (Simulation time: 3 hr 24 min 38 sec) 
Heartbeat CPU 0 instructions: 51000000 cycles: 169380505 heartbeat IPC: 0.268225 cumulative IPC: 0.25658 (Simulation time: 3 hr 28 min 57 sec) 
Heartbeat CPU 0 instructions: 52000000 cycles: 173057742 heartbeat IPC: 0.271943 cumulative IPC: 0.256926 (Simulation time: 3 hr 32 min 53 sec) 
Heartbeat CPU 0 instructions: 53000001 cycles: 176813918 heartbeat IPC: 0.266228 cumulative IPC: 0.257134 (Simulation time: 3 hr 37 min 11 sec) 
Heartbeat CPU 0 instructions: 54000000 cycles: 180693508 heartbeat IPC: 0.257759 cumulative IPC: 0.257149 (Simulation time: 3 hr 41 min 20 sec) 
Heartbeat CPU 0 instructions: 55000001 cycles: 184661513 heartbeat IPC: 0.252016 cumulative IPC: 0.257032 (Simulation time: 3 hr 45 min 46 sec) 
Heartbeat CPU 0 instructions: 56000000 cycles: 188435269 heartbeat IPC: 0.264988 cumulative IPC: 0.2572 (Simulation time: 3 hr 49 min 39 sec) 
Heartbeat CPU 0 instructions: 57000001 cycles: 192140511 heartbeat IPC: 0.269888 cumulative IPC: 0.257458 (Simulation time: 3 hr 53 min 41 sec) 
Heartbeat CPU 0 instructions: 58000000 cycles: 195985225 heartbeat IPC: 0.260097 cumulative IPC: 0.257512 (Simulation time: 3 hr 58 min 5 sec) 
Heartbeat CPU 0 instructions: 59000000 cycles: 199858712 heartbeat IPC: 0.258165 cumulative IPC: 0.257525 (Simulation time: 4 hr 2 min 9 sec) 
Heartbeat CPU 0 instructions: 60000000 cycles: 203721487 heartbeat IPC: 0.258881 cumulative IPC: 0.257552 (Simulation time: 4 hr 6 min 9 sec) 
Heartbeat CPU 0 instructions: 61000000 cycles: 207721451 heartbeat IPC: 0.250002 cumulative IPC: 0.2574 (Simulation time: 4 hr 10 min 16 sec) 
Heartbeat CPU 0 instructions: 62000002 cycles: 211585365 heartbeat IPC: 0.258805 cumulative IPC: 0.257427 (Simulation time: 4 hr 14 min 8 sec) 
Heartbeat CPU 0 instructions: 63000003 cycles: 215651099 heartbeat IPC: 0.245958 cumulative IPC: 0.257201 (Simulation time: 4 hr 18 min 24 sec) 
Heartbeat CPU 0 instructions: 64000000 cycles: 219562448 heartbeat IPC: 0.255666 cumulative IPC: 0.257172 (Simulation time: 4 hr 22 min 4 sec) 
Heartbeat CPU 0 instructions: 65000000 cycles: 223280891 heartbeat IPC: 0.26893 cumulative IPC: 0.257377 (Simulation time: 4 hr 25 min 24 sec) 
Heartbeat CPU 0 instructions: 66000002 cycles: 227041488 heartbeat IPC: 0.265916 cumulative IPC: 0.257524 (Simulation time: 4 hr 28 min 36 sec) 
Heartbeat CPU 0 instructions: 67000002 cycles: 230951230 heartbeat IPC: 0.255771 cumulative IPC: 0.257493 (Simulation time: 4 hr 31 min 40 sec) 
Heartbeat CPU 0 instructions: 68000000 cycles: 234844074 heartbeat IPC: 0.256881 cumulative IPC: 0.257483 (Simulation time: 4 hr 34 min 28 sec) 
Heartbeat CPU 0 instructions: 69000000 cycles: 238874970 heartbeat IPC: 0.248084 cumulative IPC: 0.257317 (Simulation time: 4 hr 37 min 8 sec) 
Heartbeat CPU 0 instructions: 70000000 cycles: 242898988 heartbeat IPC: 0.248508 cumulative IPC: 0.257166 (Simulation time: 4 hr 39 min 37 sec) 
Heartbeat CPU 0 instructions: 71000003 cycles: 246856776 heartbeat IPC: 0.252667 cumulative IPC: 0.257091 (Simulation time: 4 hr 42 min 9 sec) 
Heartbeat CPU 0 instructions: 72000000 cycles: 250662203 heartbeat IPC: 0.262782 cumulative IPC: 0.25718 (Simulation time: 4 hr 44 min 21 sec) 
Heartbeat CPU 0 instructions: 73000003 cycles: 254351238 heartbeat IPC: 0.271074 cumulative IPC: 0.25739 (Simulation time: 4 hr 46 min 18 sec) 
Heartbeat CPU 0 instructions: 74000001 cycles: 258176251 heartbeat IPC: 0.261436 cumulative IPC: 0.257452 (Simulation time: 4 hr 48 min 4 sec) 
Heartbeat CPU 0 instructions: 75000003 cycles: 262087430 heartbeat IPC: 0.255678 cumulative IPC: 0.257425 (Simulation time: 4 hr 49 min 44 sec) 
Heartbeat CPU 0 instructions: 76000000 cycles: 266102056 heartbeat IPC: 0.249088 cumulative IPC: 0.257294 (Simulation time: 4 hr 51 min 24 sec) 
Heartbeat CPU 0 instructions: 77000003 cycles: 270191010 heartbeat IPC: 0.244562 cumulative IPC: 0.257094 (Simulation time: 4 hr 52 min 54 sec) 
Heartbeat CPU 0 instructions: 78000001 cycles: 274230528 heartbeat IPC: 0.247554 cumulative IPC: 0.256949 (Simulation time: 4 hr 54 min 17 sec) 
Heartbeat CPU 0 instructions: 79000000 cycles: 277920216 heartbeat IPC: 0.271025 cumulative IPC: 0.257142 (Simulation time: 4 hr 55 min 22 sec) 
Heartbeat CPU 0 instructions: 80000000 cycles: 281745741 heartbeat IPC: 0.261402 cumulative IPC: 0.257202 (Simulation time: 4 hr 56 min 19 sec) 
Heartbeat CPU 0 instructions: 81000002 cycles: 285569253 heartbeat IPC: 0.26154 cumulative IPC: 0.257262 (Simulation time: 4 hr 57 min 9 sec) 
Heartbeat CPU 0 instructions: 82000000 cycles: 289295897 heartbeat IPC: 0.268337 cumulative IPC: 0.25741 (Simulation time: 4 hr 57 min 57 sec) 
Heartbeat CPU 0 instructions: 83000003 cycles: 293176833 heartbeat IPC: 0.257671 cumulative IPC: 0.257413 (Simulation time: 4 hr 58 min 42 sec) 
Heartbeat CPU 0 instructions: 84000000 cycles: 296986949 heartbeat IPC: 0.262458 cumulative IPC: 0.25748 (Simulation time: 4 hr 59 min 18 sec) 
Heartbeat CPU 0 instructions: 85000002 cycles: 301019241 heartbeat IPC: 0.247998 cumulative IPC: 0.257349 (Simulation time: 4 hr 59 min 53 sec) 
Heartbeat CPU 0 instructions: 86000003 cycles: 304943596 heartbeat IPC: 0.254819 cumulative IPC: 0.257315 (Simulation time: 5 hr 0 min 24 sec) 
Heartbeat CPU 0 instructions: 87000000 cycles: 308606355 heartbeat IPC: 0.273017 cumulative IPC: 0.257508 (Simulation time: 5 hr 0 min 51 sec) 
Heartbeat CPU 0 instructions: 88000000 cycles: 312424691 heartbeat IPC: 0.261894 cumulative IPC: 0.257563 (Simulation time: 5 hr 1 min 18 sec) 
Heartbeat CPU 0 instructions: 89000000 cycles: 316183008 heartbeat IPC: 0.266077 cumulative IPC: 0.257667 (Simulation time: 5 hr 1 min 41 sec) 
Heartbeat CPU 0 instructions: 90000000 cycles: 320128554 heartbeat IPC: 0.25345 cumulative IPC: 0.257614 (Simulation time: 5 hr 2 min 4 sec) 
Heartbeat CPU 0 instructions: 91000001 cycles: 324103603 heartbeat IPC: 0.251569 cumulative IPC: 0.257537 (Simulation time: 5 hr 2 min 25 sec) 
Heartbeat CPU 0 instructions: 92000000 cycles: 327916572 heartbeat IPC: 0.262263 cumulative IPC: 0.257594 (Simulation time: 5 hr 2 min 42 sec) 
Heartbeat CPU 0 instructions: 93000003 cycles: 331629894 heartbeat IPC: 0.269301 cumulative IPC: 0.257729 (Simulation time: 5 hr 2 min 59 sec) 
Heartbeat CPU 0 instructions: 94000000 cycles: 335367953 heartbeat IPC: 0.267518 cumulative IPC: 0.257841 (Simulation time: 5 hr 3 min 15 sec) 
Heartbeat CPU 0 instructions: 95000000 cycles: 339097262 heartbeat IPC: 0.268146 cumulative IPC: 0.257958 (Simulation time: 5 hr 3 min 30 sec) 
Heartbeat CPU 0 instructions: 96000000 cycles: 342979824 heartbeat IPC: 0.257562 cumulative IPC: 0.257953 (Simulation time: 5 hr 3 min 46 sec) 
Heartbeat CPU 0 instructions: 97000000 cycles: 346999623 heartbeat IPC: 0.248769 cumulative IPC: 0.257844 (Simulation time: 5 hr 4 min 2 sec) 
Heartbeat CPU 0 instructions: 98000003 cycles: 350811920 heartbeat IPC: 0.26231 cumulative IPC: 0.257894 (Simulation time: 5 hr 4 min 17 sec) 
Heartbeat CPU 0 instructions: 99000000 cycles: 354446794 heartbeat IPC: 0.275112 cumulative IPC: 0.258075 (Simulation time: 5 hr 4 min 31 sec) 
Heartbeat CPU 0 instructions: 100000000 cycles: 358197255 heartbeat IPC: 0.266634 cumulative IPC: 0.258167 (Simulation time: 5 hr 4 min 44 sec) 
Heartbeat CPU 0 instructions: 101000000 cycles: 361894548 heartbeat IPC: 0.270468 cumulative IPC: 0.258296 (Simulation time: 5 hr 4 min 59 sec) 
Heartbeat CPU 0 instructions: 102000001 cycles: 365791816 heartbeat IPC: 0.25659 cumulative IPC: 0.258278 (Simulation time: 5 hr 5 min 13 sec) 
Heartbeat CPU 0 instructions: 103000001 cycles: 369757584 heartbeat IPC: 0.252158 cumulative IPC: 0.25821 (Simulation time: 5 hr 5 min 29 sec) 
Heartbeat CPU 0 instructions: 104000000 cycles: 373554570 heartbeat IPC: 0.263367 cumulative IPC: 0.258264 (Simulation time: 5 hr 5 min 43 sec) 
Heartbeat CPU 0 instructions: 105000002 cycles: 377242326 heartbeat IPC: 0.271168 cumulative IPC: 0.258394 (Simulation time: 5 hr 5 min 57 sec) 
Heartbeat CPU 0 instructions: 106000000 cycles: 380971465 heartbeat IPC: 0.268158 cumulative IPC: 0.258492 (Simulation time: 5 hr 6 min 11 sec) 
Heartbeat CPU 0 instructions: 107000002 cycles: 384868907 heartbeat IPC: 0.256579 cumulative IPC: 0.258472 (Simulation time: 5 hr 6 min 25 sec) 
Heartbeat CPU 0 instructions: 108000000 cycles: 388748550 heartbeat IPC: 0.257755 cumulative IPC: 0.258465 (Simulation time: 5 hr 6 min 39 sec) 
Heartbeat CPU 0 instructions: 109000000 cycles: 392755623 heartbeat IPC: 0.249559 cumulative IPC: 0.258371 (Simulation time: 5 hr 6 min 53 sec) 
Heartbeat CPU 0 instructions: 110000000 cycles: 396777632 heartbeat IPC: 0.248632 cumulative IPC: 0.25827 (Simulation time: 5 hr 7 min 7 sec) 
Finished CPU 0 instructions: 100000003 cycles: 387191385 cummulative IPC: 0.25827 (Simulation time: 5 hr 7 min 7 sec) 

ChampSim completed all CPUs

Region of Interest Statistics

CPU 0 cummulative IPC: 0.25827 instructions: 100000003 cycles: 387191385
LLC TOTAL     ACCESS:   21346108  HIT:          0  MISS:   21346108
LLC LOAD      ACCESS:     165855  HIT:          0  MISS:     165855
LLC RFO       ACCESS:   10463405  HIT:          0  MISS:   10463405
LLC PREFETCH  ACCESS:     183377  HIT:          0  MISS:     183377
LLC WRITEBACK ACCESS:   10533471  HIT:          0  MISS:   10533471
