
*** ChampSim Multicore Out-of-Order Simulator ***

Warmup Instructions: 10000000
Simulation Instructions: 100000000
Configuration: 2
Number of CPUs: 1
LLC sets: 2048
LLC ways: 16
Off-chip DRAM Channels: 1 Width: 64-bit Data Rate: 1600 MT/s

CPU 0 runs /datasets/cs240c-wi22-a00-public/data/Assignment2-gz/sphinx3_2520B.trace.gz
CPU 0 L1D next line prefetcher
CPU 0 L2C IP-based stride prefetcher
config 2, num_core 1, llc_sets 2048
Heartbeat CPU 0 instructions: 1000003 cycles: 338965 heartbeat IPC: 2.95017 cumulative IPC: 2.95017 (Simulation time: 0 hr 2 min 20 sec) 
Heartbeat CPU 0 instructions: 2000000 cycles: 737255 heartbeat IPC: 2.51073 cumulative IPC: 2.71277 (Simulation time: 0 hr 4 min 46 sec) 
Heartbeat CPU 0 instructions: 3000003 cycles: 1185190 heartbeat IPC: 2.23247 cumulative IPC: 2.53124 (Simulation time: 0 hr 7 min 3 sec) 
Heartbeat CPU 0 instructions: 4000000 cycles: 1524242 heartbeat IPC: 2.94939 cumulative IPC: 2.62426 (Simulation time: 0 hr 9 min 16 sec) 
Heartbeat CPU 0 instructions: 5000001 cycles: 1902608 heartbeat IPC: 2.64295 cumulative IPC: 2.62797 (Simulation time: 0 hr 11 min 44 sec) 
Heartbeat CPU 0 instructions: 6000001 cycles: 2368104 heartbeat IPC: 2.14825 cumulative IPC: 2.53367 (Simulation time: 0 hr 14 min 6 sec) 
Heartbeat CPU 0 instructions: 7000001 cycles: 2707049 heartbeat IPC: 2.95033 cumulative IPC: 2.58584 (Simulation time: 0 hr 16 min 12 sec) 
Heartbeat CPU 0 instructions: 8000000 cycles: 3056125 heartbeat IPC: 2.8647 cumulative IPC: 2.61769 (Simulation time: 0 hr 18 min 27 sec) 
Heartbeat CPU 0 instructions: 9000000 cycles: 3509606 heartbeat IPC: 2.20516 cumulative IPC: 2.56439 (Simulation time: 0 hr 20 min 41 sec) 
Heartbeat CPU 0 instructions: 10000000 cycles: 3859657 heartbeat IPC: 2.85673 cumulative IPC: 2.5909 (Simulation time: 0 hr 22 min 55 sec) 

Warmup complete CPU 0 instructions: 10000004 cycles: 3859658 (Simulation time: 0 hr 22 min 55 sec) 

Heartbeat CPU 0 instructions: 11000001 cycles: 4795233 heartbeat IPC: 1.06886 cumulative IPC: 1.06886 (Simulation time: 0 hr 25 min 32 sec) 
Heartbeat CPU 0 instructions: 12000000 cycles: 5962418 heartbeat IPC: 0.856761 cumulative IPC: 0.951129 (Simulation time: 0 hr 27 min 55 sec) 
Heartbeat CPU 0 instructions: 13000002 cycles: 6875973 heartbeat IPC: 1.09463 cumulative IPC: 0.99459 (Simulation time: 0 hr 30 min 15 sec) 
Heartbeat CPU 0 instructions: 14000002 cycles: 7779893 heartbeat IPC: 1.10629 cumulative IPC: 1.02035 (Simulation time: 0 hr 32 min 50 sec) 
Heartbeat CPU 0 instructions: 15000003 cycles: 8971961 heartbeat IPC: 0.838879 cumulative IPC: 0.978033 (Simulation time: 0 hr 35 min 27 sec) 
Heartbeat CPU 0 instructions: 16000000 cycles: 9885258 heartbeat IPC: 1.09493 cumulative IPC: 0.995751 (Simulation time: 0 hr 37 min 50 sec) 
Heartbeat CPU 0 instructions: 17000000 cycles: 10767867 heartbeat IPC: 1.133 cumulative IPC: 1.01329 (Simulation time: 0 hr 40 min 16 sec) 
Heartbeat CPU 0 instructions: 18000002 cycles: 11941651 heartbeat IPC: 0.851947 cumulative IPC: 0.989855 (Simulation time: 0 hr 42 min 48 sec) 
Heartbeat CPU 0 instructions: 19000001 cycles: 12849965 heartbeat IPC: 1.10094 cumulative IPC: 1.00108 (Simulation time: 0 hr 45 min 4 sec) 
Heartbeat CPU 0 instructions: 20000000 cycles: 13733425 heartbeat IPC: 1.13191 cumulative IPC: 1.01278 (Simulation time: 0 hr 47 min 25 sec) 
Heartbeat CPU 0 instructions: 21000001 cycles: 15018539 heartbeat IPC: 0.778142 cumulative IPC: 0.985762 (Simulation time: 0 hr 50 min 3 sec) 
Heartbeat CPU 0 instructions: 22000002 cycles: 16080978 heartbeat IPC: 0.941231 cumulative IPC: 0.98189 (Simulation time: 0 hr 52 min 33 sec) 
Heartbeat CPU 0 instructions: 23000001 cycles: 17033171 heartbeat IPC: 1.05021 cumulative IPC: 0.986828 (Simulation time: 0 hr 55 min 1 sec) 
Heartbeat CPU 0 instructions: 24000000 cycles: 17918968 heartbeat IPC: 1.12893 cumulative IPC: 0.995781 (Simulation time: 0 hr 57 min 29 sec) 
Heartbeat CPU 0 instructions: 25000003 cycles: 19007561 heartbeat IPC: 0.91862 cumulative IPC: 0.990236 (Simulation time: 1 hr 0 min 4 sec) 
Heartbeat CPU 0 instructions: 26000001 cycles: 19913012 heartbeat IPC: 1.10442 cumulative IPC: 0.996676 (Simulation time: 1 hr 2 min 21 sec) 
Heartbeat CPU 0 instructions: 27000002 cycles: 20800712 heartbeat IPC: 1.12651 cumulative IPC: 1.00348 (Simulation time: 1 hr 4 min 44 sec) 
Heartbeat CPU 0 instructions: 28000000 cycles: 21902911 heartbeat IPC: 0.907275 cumulative IPC: 0.997603 (Simulation time: 1 hr 7 min 28 sec) 
Heartbeat CPU 0 instructions: 29000003 cycles: 22811852 heartbeat IPC: 1.10018 cumulative IPC: 1.00252 (Simulation time: 1 hr 9 min 58 sec) 
Heartbeat CPU 0 instructions: 30000003 cycles: 23693676 heartbeat IPC: 1.13401 cumulative IPC: 1.00837 (Simulation time: 1 hr 12 min 30 sec) 
Heartbeat CPU 0 instructions: 31000001 cycles: 24770775 heartbeat IPC: 0.928418 cumulative IPC: 1.00425 (Simulation time: 1 hr 15 min 11 sec) 
Heartbeat CPU 0 instructions: 32000000 cycles: 25672892 heartbeat IPC: 1.1085 cumulative IPC: 1.00856 (Simulation time: 1 hr 17 min 42 sec) 
Heartbeat CPU 0 instructions: 33000000 cycles: 26568763 heartbeat IPC: 1.11623 cumulative IPC: 1.01281 (Simulation time: 1 hr 20 min 9 sec) 
Heartbeat CPU 0 instructions: 34000000 cycles: 27631308 heartbeat IPC: 0.941137 cumulative IPC: 1.00961 (Simulation time: 1 hr 22 min 41 sec) 
Heartbeat CPU 0 instructions: 35000002 cycles: 28537591 heartbeat IPC: 1.10341 cumulative IPC: 1.01305 (Simulation time: 1 hr 25 min 23 sec) 
Heartbeat CPU 0 instructions: 36000000 cycles: 29430120 heartbeat IPC: 1.12041 cumulative IPC: 1.0168 (Simulation time: 1 hr 27 min 58 sec) 
Heartbeat CPU 0 instructions: 37000000 cycles: 30499081 heartbeat IPC: 0.935488 cumulative IPC: 1.01354 (Simulation time: 1 hr 30 min 40 sec) 
Heartbeat CPU 0 instructions: 38000002 cycles: 31404744 heartbeat IPC: 1.10417 cumulative IPC: 1.01652 (Simulation time: 1 hr 33 min 15 sec) 
Heartbeat CPU 0 instructions: 39000000 cycles: 32356412 heartbeat IPC: 1.05078 cumulative IPC: 1.01766 (Simulation time: 1 hr 35 min 35 sec) 
Heartbeat CPU 0 instructions: 40000000 cycles: 33427623 heartbeat IPC: 0.933523 cumulative IPC: 1.01461 (Simulation time: 1 hr 37 min 57 sec) 
Heartbeat CPU 0 instructions: 41000001 cycles: 34328465 heartbeat IPC: 1.11007 cumulative IPC: 1.01743 (Simulation time: 1 hr 40 min 25 sec) 
Heartbeat CPU 0 instructions: 42000002 cycles: 35289431 heartbeat IPC: 1.04062 cumulative IPC: 1.01814 (Simulation time: 1 hr 42 min 54 sec) 
Heartbeat CPU 0 instructions: 43000001 cycles: 36320309 heartbeat IPC: 0.970046 cumulative IPC: 1.01662 (Simulation time: 1 hr 45 min 15 sec) 
Heartbeat CPU 0 instructions: 44000000 cycles: 37224060 heartbeat IPC: 1.1065 cumulative IPC: 1.01905 (Simulation time: 1 hr 47 min 37 sec) 
Heartbeat CPU 0 instructions: 45000001 cycles: 38183162 heartbeat IPC: 1.04264 cumulative IPC: 1.01971 (Simulation time: 1 hr 50 min 11 sec) 
Heartbeat CPU 0 instructions: 46000001 cycles: 39236219 heartbeat IPC: 0.949616 cumulative IPC: 1.01762 (Simulation time: 1 hr 52 min 35 sec) 
Heartbeat CPU 0 instructions: 47000003 cycles: 40129276 heartbeat IPC: 1.11975 cumulative IPC: 1.02014 (Simulation time: 1 hr 54 min 59 sec) 
Heartbeat CPU 0 instructions: 48000000 cycles: 41105257 heartbeat IPC: 1.02461 cumulative IPC: 1.02025 (Simulation time: 1 hr 57 min 25 sec) 
Heartbeat CPU 0 instructions: 49000002 cycles: 42122840 heartbeat IPC: 0.982723 cumulative IPC: 1.01926 (Simulation time: 1 hr 59 min 44 sec) 
Heartbeat CPU 0 instructions: 50000003 cycles: 43016227 heartbeat IPC: 1.11934 cumulative IPC: 1.02154 (Simulation time: 2 hr 2 min 1 sec) 
Heartbeat CPU 0 instructions: 51000001 cycles: 43991247 heartbeat IPC: 1.02562 cumulative IPC: 1.02164 (Simulation time: 2 hr 4 min 29 sec) 
Heartbeat CPU 0 instructions: 52000000 cycles: 44987272 heartbeat IPC: 1.00399 cumulative IPC: 1.02121 (Simulation time: 2 hr 6 min 45 sec) 
Heartbeat CPU 0 instructions: 53000001 cycles: 45880172 heartbeat IPC: 1.11995 cumulative IPC: 1.02331 (Simulation time: 2 hr 8 min 53 sec) 
Heartbeat CPU 0 instructions: 54000001 cycles: 46822226 heartbeat IPC: 1.06151 cumulative IPC: 1.02415 (Simulation time: 2 hr 11 min 4 sec) 
Heartbeat CPU 0 instructions: 55000000 cycles: 47777749 heartbeat IPC: 1.04655 cumulative IPC: 1.02463 (Simulation time: 2 hr 13 min 20 sec) 
Heartbeat CPU 0 instructions: 56000000 cycles: 48667267 heartbeat IPC: 1.1242 cumulative IPC: 1.02661 (Simulation time: 2 hr 15 min 28 sec) 
Heartbeat CPU 0 instructions: 57000000 cycles: 49714122 heartbeat IPC: 0.955242 cumulative IPC: 1.02498 (Simulation time: 2 hr 17 min 40 sec) 
Heartbeat CPU 0 instructions: 58000002 cycles: 50844558 heartbeat IPC: 0.884616 cumulative IPC: 1.0216 (Simulation time: 2 hr 19 min 55 sec) 
Heartbeat CPU 0 instructions: 59000001 cycles: 51844020 heartbeat IPC: 1.00054 cumulative IPC: 1.02117 (Simulation time: 2 hr 22 min 4 sec) 
Heartbeat CPU 0 instructions: 60000000 cycles: 52746015 heartbeat IPC: 1.10865 cumulative IPC: 1.02278 (Simulation time: 2 hr 24 min 12 sec) 
Heartbeat CPU 0 instructions: 61000001 cycles: 53659985 heartbeat IPC: 1.09413 cumulative IPC: 1.02409 (Simulation time: 2 hr 26 min 20 sec) 
Heartbeat CPU 0 instructions: 62000000 cycles: 54657373 heartbeat IPC: 1.00262 cumulative IPC: 1.02367 (Simulation time: 2 hr 28 min 44 sec) 
Heartbeat CPU 0 instructions: 63000002 cycles: 55546881 heartbeat IPC: 1.12422 cumulative IPC: 1.0254 (Simulation time: 2 hr 30 min 52 sec) 
Heartbeat CPU 0 instructions: 64000000 cycles: 56492374 heartbeat IPC: 1.05765 cumulative IPC: 1.02598 (Simulation time: 2 hr 32 min 56 sec) 
Heartbeat CPU 0 instructions: 65000001 cycles: 57470676 heartbeat IPC: 1.02218 cumulative IPC: 1.02591 (Simulation time: 2 hr 35 min 15 sec) 
Heartbeat CPU 0 instructions: 66000000 cycles: 58364608 heartbeat IPC: 1.11865 cumulative IPC: 1.02743 (Simulation time: 2 hr 37 min 34 sec) 
Heartbeat CPU 0 instructions: 67000003 cycles: 59361103 heartbeat IPC: 1.00352 cumulative IPC: 1.027 (Simulation time: 2 hr 40 min 4 sec) 
Heartbeat CPU 0 instructions: 68000000 cycles: 60333462 heartbeat IPC: 1.02842 cumulative IPC: 1.02702 (Simulation time: 2 hr 42 min 27 sec) 
Heartbeat CPU 0 instructions: 69000003 cycles: 61222585 heartbeat IPC: 1.12471 cumulative IPC: 1.02854 (Simulation time: 2 hr 44 min 42 sec) 
Heartbeat CPU 0 instructions: 70000000 cycles: 62229099 heartbeat IPC: 0.993525 cumulative IPC: 1.02794 (Simulation time: 2 hr 46 min 50 sec) 
Heartbeat CPU 0 instructions: 71000002 cycles: 63208157 heartbeat IPC: 1.02139 cumulative IPC: 1.02783 (Simulation time: 2 hr 49 min 20 sec) 
Heartbeat CPU 0 instructions: 72000000 cycles: 64098050 heartbeat IPC: 1.12373 cumulative IPC: 1.02924 (Simulation time: 2 hr 51 min 58 sec) 
Heartbeat CPU 0 instructions: 73000003 cycles: 65088478 heartbeat IPC: 1.00967 cumulative IPC: 1.02893 (Simulation time: 2 hr 54 min 12 sec) 
Heartbeat CPU 0 instructions: 74000003 cycles: 66048951 heartbeat IPC: 1.04115 cumulative IPC: 1.02912 (Simulation time: 2 hr 56 min 43 sec) 
Heartbeat CPU 0 instructions: 75000002 cycles: 66938192 heartbeat IPC: 1.12455 cumulative IPC: 1.03046 (Simulation time: 2 hr 58 min 59 sec) 
Heartbeat CPU 0 instructions: 76000000 cycles: 67931998 heartbeat IPC: 1.00623 cumulative IPC: 1.03009 (Simulation time: 3 hr 1 min 17 sec) 
Heartbeat CPU 0 instructions: 77000003 cycles: 68911343 heartbeat IPC: 1.02109 cumulative IPC: 1.02995 (Simulation time: 3 hr 3 min 46 sec) 
Heartbeat CPU 0 instructions: 78000003 cycles: 69796087 heartbeat IPC: 1.13027 cumulative IPC: 1.0313 (Simulation time: 3 hr 5 min 59 sec) 
Heartbeat CPU 0 instructions: 79000003 cycles: 70792618 heartbeat IPC: 1.00348 cumulative IPC: 1.03088 (Simulation time: 3 hr 8 min 35 sec) 
Heartbeat CPU 0 instructions: 80000000 cycles: 71767918 heartbeat IPC: 1.02532 cumulative IPC: 1.0308 (Simulation time: 3 hr 11 min 2 sec) 
Heartbeat CPU 0 instructions: 81000001 cycles: 72651515 heartbeat IPC: 1.13174 cumulative IPC: 1.0321 (Simulation time: 3 hr 13 min 26 sec) 
Heartbeat CPU 0 instructions: 82000002 cycles: 73658039 heartbeat IPC: 0.993519 cumulative IPC: 1.03154 (Simulation time: 3 hr 15 min 44 sec) 
Heartbeat CPU 0 instructions: 83000002 cycles: 74634747 heartbeat IPC: 1.02385 cumulative IPC: 1.03144 (Simulation time: 3 hr 18 min 10 sec) 
Heartbeat CPU 0 instructions: 84000000 cycles: 75520170 heartbeat IPC: 1.1294 cumulative IPC: 1.03265 (Simulation time: 3 hr 20 min 30 sec) 
Heartbeat CPU 0 instructions: 85000001 cycles: 76545450 heartbeat IPC: 0.975344 cumulative IPC: 1.03184 (Simulation time: 3 hr 22 min 54 sec) 
Heartbeat CPU 0 instructions: 86000000 cycles: 77456763 heartbeat IPC: 1.09732 cumulative IPC: 1.03265 (Simulation time: 3 hr 25 min 17 sec) 
Heartbeat CPU 0 instructions: 87000003 cycles: 78344625 heartbeat IPC: 1.1263 cumulative IPC: 1.03377 (Simulation time: 3 hr 27 min 38 sec) 
Heartbeat CPU 0 instructions: 88000000 cycles: 79372081 heartbeat IPC: 0.973275 cumulative IPC: 1.03294 (Simulation time: 3 hr 30 min 5 sec) 
Heartbeat CPU 0 instructions: 89000000 cycles: 80276136 heartbeat IPC: 1.10613 cumulative IPC: 1.03381 (Simulation time: 3 hr 32 min 23 sec) 
Heartbeat CPU 0 instructions: 90000001 cycles: 81151406 heartbeat IPC: 1.14251 cumulative IPC: 1.03504 (Simulation time: 3 hr 34 min 42 sec) 
Heartbeat CPU 0 instructions: 91000001 cycles: 82178802 heartbeat IPC: 0.973335 cumulative IPC: 1.03423 (Simulation time: 3 hr 36 min 58 sec) 
Heartbeat CPU 0 instructions: 92000000 cycles: 83086112 heartbeat IPC: 1.10216 cumulative IPC: 1.03501 (Simulation time: 3 hr 39 min 19 sec) 
Heartbeat CPU 0 instructions: 93000002 cycles: 83954687 heartbeat IPC: 1.15131 cumulative IPC: 1.03627 (Simulation time: 3 hr 41 min 41 sec) 
Heartbeat CPU 0 instructions: 94000000 cycles: 85003660 heartbeat IPC: 0.953312 cumulative IPC: 1.0352 (Simulation time: 3 hr 43 min 52 sec) 
Heartbeat CPU 0 instructions: 95000000 cycles: 85907312 heartbeat IPC: 1.10662 cumulative IPC: 1.03598 (Simulation time: 3 hr 46 min 13 sec) 
Heartbeat CPU 0 instructions: 96000000 cycles: 86823359 heartbeat IPC: 1.09165 cumulative IPC: 1.0366 (Simulation time: 3 hr 48 min 29 sec) 
Heartbeat CPU 0 instructions: 97000002 cycles: 88088428 heartbeat IPC: 0.790472 cumulative IPC: 1.0329 (Simulation time: 3 hr 51 min 1 sec) 
Heartbeat CPU 0 instructions: 98000003 cycles: 89195544 heartbeat IPC: 0.903249 cumulative IPC: 1.03122 (Simulation time: 3 hr 53 min 33 sec) 
Heartbeat CPU 0 instructions: 99000000 cycles: 90121930 heartbeat IPC: 1.07946 cumulative IPC: 1.03174 (Simulation time: 3 hr 55 min 59 sec) 
Heartbeat CPU 0 instructions: 100000000 cycles: 91003315 heartbeat IPC: 1.13458 cumulative IPC: 1.03278 (Simulation time: 3 hr 58 min 34 sec) 
Heartbeat CPU 0 instructions: 101000001 cycles: 92608776 heartbeat IPC: 0.622875 cumulative IPC: 1.02536 (Simulation time: 4 hr 1 min 15 sec) 
Heartbeat CPU 0 instructions: 102000001 cycles: 93658701 heartbeat IPC: 0.952449 cumulative IPC: 1.02451 (Simulation time: 4 hr 3 min 46 sec) 
Heartbeat CPU 0 instructions: 103000001 cycles: 94561250 heartbeat IPC: 1.10797 cumulative IPC: 1.02534 (Simulation time: 4 hr 6 min 16 sec) 
Heartbeat CPU 0 instructions: 104000000 cycles: 96134843 heartbeat IPC: 0.635488 cumulative IPC: 1.01869 (Simulation time: 4 hr 8 min 41 sec) 
Heartbeat CPU 0 instructions: 105000002 cycles: 97219888 heartbeat IPC: 0.921623 cumulative IPC: 1.01756 (Simulation time: 4 hr 11 min 10 sec) 
Heartbeat CPU 0 instructions: 106000000 cycles: 98129957 heartbeat IPC: 1.09882 cumulative IPC: 1.01835 (Simulation time: 4 hr 13 min 29 sec) 
Heartbeat CPU 0 instructions: 107000001 cycles: 99468014 heartbeat IPC: 0.747353 cumulative IPC: 1.01456 (Simulation time: 4 hr 15 min 54 sec) 
Heartbeat CPU 0 instructions: 108000000 cycles: 100763704 heartbeat IPC: 0.771789 cumulative IPC: 1.01131 (Simulation time: 4 hr 18 min 20 sec) 
Heartbeat CPU 0 instructions: 109000003 cycles: 101702061 heartbeat IPC: 1.0657 cumulative IPC: 1.01183 (Simulation time: 4 hr 20 min 31 sec) 
Heartbeat CPU 0 instructions: 110000000 cycles: 102714394 heartbeat IPC: 0.987814 cumulative IPC: 1.01159 (Simulation time: 4 hr 22 min 26 sec) 
Finished CPU 0 instructions: 100000003 cycles: 98854740 cummulative IPC: 1.01159 (Simulation time: 4 hr 22 min 26 sec) 

ChampSim completed all CPUs

Region of Interest Statistics

CPU 0 cummulative IPC: 1.01159 instructions: 100000003 cycles: 98854740
LLC TOTAL     ACCESS:    1445700  HIT:          0  MISS:    1445700
LLC LOAD      ACCESS:     118717  HIT:          0  MISS:     118717
LLC RFO       ACCESS:     122116  HIT:          0  MISS:     122116
LLC PREFETCH  ACCESS:    1076478  HIT:          0  MISS:    1076478
LLC WRITEBACK ACCESS:     128389  HIT:          0  MISS:     128389
