
*** ChampSim Multicore Out-of-Order Simulator ***

Warmup Instructions: 10000000
Simulation Instructions: 100000000
Configuration: 2
Number of CPUs: 1
LLC sets: 2048
LLC ways: 16
Off-chip DRAM Channels: 1 Width: 64-bit Data Rate: 1600 MT/s

CPU 0 runs /datasets/cs240c-wi22-a00-public/data/Assignment2-gz/omnetpp_340B.trace.gz
CPU 0 L1D next line prefetcher
CPU 0 L2C IP-based stride prefetcher
config 2, num_core 1, llc_sets 2048
Heartbeat CPU 0 instructions: 1000001 cycles: 577003 heartbeat IPC: 1.73309 cumulative IPC: 1.73309 (Simulation time: 0 hr 2 min 47 sec) 
Heartbeat CPU 0 instructions: 2000000 cycles: 1161019 heartbeat IPC: 1.71228 cumulative IPC: 1.72262 (Simulation time: 0 hr 5 min 25 sec) 
Heartbeat CPU 0 instructions: 3000001 cycles: 1758525 heartbeat IPC: 1.67362 cumulative IPC: 1.70598 (Simulation time: 0 hr 8 min 7 sec) 
Heartbeat CPU 0 instructions: 4000000 cycles: 2379713 heartbeat IPC: 1.60982 cumulative IPC: 1.68087 (Simulation time: 0 hr 10 min 59 sec) 
Heartbeat CPU 0 instructions: 5000002 cycles: 2955634 heartbeat IPC: 1.73635 cumulative IPC: 1.69169 (Simulation time: 0 hr 13 min 39 sec) 
Heartbeat CPU 0 instructions: 6000003 cycles: 3557231 heartbeat IPC: 1.66224 cumulative IPC: 1.68671 (Simulation time: 0 hr 16 min 38 sec) 
Heartbeat CPU 0 instructions: 7000003 cycles: 4206857 heartbeat IPC: 1.53935 cumulative IPC: 1.66395 (Simulation time: 0 hr 19 min 27 sec) 
Heartbeat CPU 0 instructions: 8000000 cycles: 4801611 heartbeat IPC: 1.68136 cumulative IPC: 1.66611 (Simulation time: 0 hr 22 min 5 sec) 
Heartbeat CPU 0 instructions: 9000002 cycles: 5435484 heartbeat IPC: 1.57761 cumulative IPC: 1.65579 (Simulation time: 0 hr 24 min 42 sec) 
Heartbeat CPU 0 instructions: 10000002 cycles: 6030180 heartbeat IPC: 1.68153 cumulative IPC: 1.65833 (Simulation time: 0 hr 27 min 26 sec) 

Warmup complete CPU 0 instructions: 10000002 cycles: 6030180 (Simulation time: 0 hr 27 min 26 sec) 

Heartbeat CPU 0 instructions: 11000000 cycles: 10077232 heartbeat IPC: 0.247093 cumulative IPC: 0.247093 (Simulation time: 0 hr 30 min 50 sec) 
Heartbeat CPU 0 instructions: 12000000 cycles: 13933744 heartbeat IPC: 0.259302 cumulative IPC: 0.25305 (Simulation time: 0 hr 34 min 2 sec) 
Heartbeat CPU 0 instructions: 13000000 cycles: 18400260 heartbeat IPC: 0.223888 cumulative IPC: 0.24252 (Simulation time: 0 hr 37 min 44 sec) 
Heartbeat CPU 0 instructions: 14000001 cycles: 22630380 heartbeat IPC: 0.2364 cumulative IPC: 0.240961 (Simulation time: 0 hr 41 min 4 sec) 
Heartbeat CPU 0 instructions: 15000003 cycles: 26946779 heartbeat IPC: 0.231675 cumulative IPC: 0.239045 (Simulation time: 0 hr 44 min 46 sec) 
Heartbeat CPU 0 instructions: 16000000 cycles: 31748669 heartbeat IPC: 0.208251 cumulative IPC: 0.233295 (Simulation time: 0 hr 48 min 21 sec) 
Heartbeat CPU 0 instructions: 17000000 cycles: 35762601 heartbeat IPC: 0.249132 cumulative IPC: 0.235433 (Simulation time: 0 hr 51 min 51 sec) 
Heartbeat CPU 0 instructions: 18000000 cycles: 40190853 heartbeat IPC: 0.225823 cumulative IPC: 0.234187 (Simulation time: 0 hr 55 min 29 sec) 
Heartbeat CPU 0 instructions: 19000000 cycles: 45007789 heartbeat IPC: 0.207601 cumulative IPC: 0.230902 (Simulation time: 0 hr 58 min 59 sec) 
Heartbeat CPU 0 instructions: 20000000 cycles: 49651360 heartbeat IPC: 0.215352 cumulative IPC: 0.229246 (Simulation time: 1 hr 2 min 13 sec) 
Heartbeat CPU 0 instructions: 21000000 cycles: 53508191 heartbeat IPC: 0.25928 cumulative IPC: 0.231686 (Simulation time: 1 hr 5 min 32 sec) 
Heartbeat CPU 0 instructions: 22000001 cycles: 57961766 heartbeat IPC: 0.224539 cumulative IPC: 0.231073 (Simulation time: 1 hr 9 min 0 sec) 
Heartbeat CPU 0 instructions: 23000001 cycles: 62102772 heartbeat IPC: 0.241487 cumulative IPC: 0.231842 (Simulation time: 1 hr 12 min 28 sec) 
Heartbeat CPU 0 instructions: 24000000 cycles: 66075024 heartbeat IPC: 0.251746 cumulative IPC: 0.233159 (Simulation time: 1 hr 15 min 44 sec) 
Heartbeat CPU 0 instructions: 25000000 cycles: 70442542 heartbeat IPC: 0.228963 cumulative IPC: 0.232875 (Simulation time: 1 hr 19 min 8 sec) 
Heartbeat CPU 0 instructions: 26000001 cycles: 74750439 heartbeat IPC: 0.232132 cumulative IPC: 0.232828 (Simulation time: 1 hr 22 min 39 sec) 
Heartbeat CPU 0 instructions: 27000000 cycles: 79099198 heartbeat IPC: 0.22995 cumulative IPC: 0.232657 (Simulation time: 1 hr 26 min 3 sec) 
Heartbeat CPU 0 instructions: 28000000 cycles: 83445531 heartbeat IPC: 0.230079 cumulative IPC: 0.232512 (Simulation time: 1 hr 29 min 46 sec) 
Heartbeat CPU 0 instructions: 29000003 cycles: 87980176 heartbeat IPC: 0.220525 cumulative IPC: 0.231849 (Simulation time: 1 hr 33 min 22 sec) 
Heartbeat CPU 0 instructions: 30000000 cycles: 92328955 heartbeat IPC: 0.229949 cumulative IPC: 0.231753 (Simulation time: 1 hr 36 min 50 sec) 
Heartbeat CPU 0 instructions: 31000000 cycles: 96690958 heartbeat IPC: 0.229252 cumulative IPC: 0.231633 (Simulation time: 1 hr 40 min 24 sec) 
Heartbeat CPU 0 instructions: 32000000 cycles: 100978626 heartbeat IPC: 0.233227 cumulative IPC: 0.231705 (Simulation time: 1 hr 43 min 49 sec) 
Heartbeat CPU 0 instructions: 33000003 cycles: 105161549 heartbeat IPC: 0.239068 cumulative IPC: 0.232015 (Simulation time: 1 hr 47 min 17 sec) 
Heartbeat CPU 0 instructions: 34000001 cycles: 109684487 heartbeat IPC: 0.221095 cumulative IPC: 0.231539 (Simulation time: 1 hr 50 min 57 sec) 
Heartbeat CPU 0 instructions: 35000002 cycles: 113565322 heartbeat IPC: 0.257677 cumulative IPC: 0.232482 (Simulation time: 1 hr 54 min 12 sec) 
Heartbeat CPU 0 instructions: 36000000 cycles: 118396150 heartbeat IPC: 0.207003 cumulative IPC: 0.231387 (Simulation time: 1 hr 57 min 43 sec) 
Heartbeat CPU 0 instructions: 37000000 cycles: 123255841 heartbeat IPC: 0.205774 cumulative IPC: 0.230325 (Simulation time: 2 hr 1 min 6 sec) 
Heartbeat CPU 0 instructions: 38000000 cycles: 127440006 heartbeat IPC: 0.238996 cumulative IPC: 0.230624 (Simulation time: 2 hr 4 min 19 sec) 
Heartbeat CPU 0 instructions: 39000001 cycles: 131737791 heartbeat IPC: 0.232678 cumulative IPC: 0.230694 (Simulation time: 2 hr 7 min 32 sec) 
Heartbeat CPU 0 instructions: 40000000 cycles: 135409590 heartbeat IPC: 0.272346 cumulative IPC: 0.231876 (Simulation time: 2 hr 10 min 34 sec) 
Heartbeat CPU 0 instructions: 41000000 cycles: 139338430 heartbeat IPC: 0.254528 cumulative IPC: 0.232544 (Simulation time: 2 hr 13 min 40 sec) 
Heartbeat CPU 0 instructions: 42000001 cycles: 143897988 heartbeat IPC: 0.21932 cumulative IPC: 0.232106 (Simulation time: 2 hr 16 min 59 sec) 
Heartbeat CPU 0 instructions: 43000001 cycles: 148235302 heartbeat IPC: 0.230557 cumulative IPC: 0.232059 (Simulation time: 2 hr 20 min 3 sec) 
Heartbeat CPU 0 instructions: 44000000 cycles: 152137599 heartbeat IPC: 0.256259 cumulative IPC: 0.232705 (Simulation time: 2 hr 23 min 13 sec) 
Heartbeat CPU 0 instructions: 45000003 cycles: 156289385 heartbeat IPC: 0.240861 cumulative IPC: 0.232931 (Simulation time: 2 hr 26 min 15 sec) 
Heartbeat CPU 0 instructions: 46000003 cycles: 160901257 heartbeat IPC: 0.216832 cumulative IPC: 0.232451 (Simulation time: 2 hr 29 min 50 sec) 
Heartbeat CPU 0 instructions: 47000000 cycles: 164511194 heartbeat IPC: 0.277012 cumulative IPC: 0.233466 (Simulation time: 2 hr 32 min 38 sec) 
Heartbeat CPU 0 instructions: 48000000 cycles: 169245866 heartbeat IPC: 0.211208 cumulative IPC: 0.232821 (Simulation time: 2 hr 36 min 9 sec) 
Heartbeat CPU 0 instructions: 49000000 cycles: 172606222 heartbeat IPC: 0.297588 cumulative IPC: 0.234127 (Simulation time: 2 hr 39 min 23 sec) 
Heartbeat CPU 0 instructions: 50000001 cycles: 177043141 heartbeat IPC: 0.225382 cumulative IPC: 0.2339 (Simulation time: 2 hr 43 min 5 sec) 
Heartbeat CPU 0 instructions: 51000003 cycles: 181218129 heartbeat IPC: 0.239522 cumulative IPC: 0.234034 (Simulation time: 2 hr 46 min 41 sec) 
Heartbeat CPU 0 instructions: 52000000 cycles: 185488728 heartbeat IPC: 0.234158 cumulative IPC: 0.234037 (Simulation time: 2 hr 50 min 19 sec) 
Heartbeat CPU 0 instructions: 53000000 cycles: 190855647 heartbeat IPC: 0.186327 cumulative IPC: 0.232652 (Simulation time: 2 hr 54 min 13 sec) 
Heartbeat CPU 0 instructions: 54000002 cycles: 195396870 heartbeat IPC: 0.220205 cumulative IPC: 0.232353 (Simulation time: 2 hr 57 min 51 sec) 
Heartbeat CPU 0 instructions: 55000001 cycles: 199661889 heartbeat IPC: 0.234465 cumulative IPC: 0.2324 (Simulation time: 3 hr 1 min 28 sec) 
Heartbeat CPU 0 instructions: 56000000 cycles: 204439862 heartbeat IPC: 0.209294 cumulative IPC: 0.231844 (Simulation time: 3 hr 5 min 12 sec) 
Heartbeat CPU 0 instructions: 57000001 cycles: 208724239 heartbeat IPC: 0.233406 cumulative IPC: 0.231877 (Simulation time: 3 hr 8 min 48 sec) 
Heartbeat CPU 0 instructions: 58000000 cycles: 212348992 heartbeat IPC: 0.275881 cumulative IPC: 0.23265 (Simulation time: 3 hr 12 min 0 sec) 
Heartbeat CPU 0 instructions: 59000003 cycles: 216646644 heartbeat IPC: 0.232686 cumulative IPC: 0.23265 (Simulation time: 3 hr 15 min 29 sec) 
Heartbeat CPU 0 instructions: 60000000 cycles: 221687241 heartbeat IPC: 0.198389 cumulative IPC: 0.23185 (Simulation time: 3 hr 19 min 26 sec) 
Heartbeat CPU 0 instructions: 61000001 cycles: 226443360 heartbeat IPC: 0.210256 cumulative IPC: 0.231384 (Simulation time: 3 hr 22 min 57 sec) 
Heartbeat CPU 0 instructions: 62000000 cycles: 231199027 heartbeat IPC: 0.210275 cumulative IPC: 0.230938 (Simulation time: 3 hr 26 min 28 sec) 
Heartbeat CPU 0 instructions: 63000001 cycles: 235263910 heartbeat IPC: 0.24601 cumulative IPC: 0.231205 (Simulation time: 3 hr 29 min 52 sec) 
Heartbeat CPU 0 instructions: 64000000 cycles: 239317537 heartbeat IPC: 0.246692 cumulative IPC: 0.231474 (Simulation time: 3 hr 33 min 11 sec) 
Heartbeat CPU 0 instructions: 65000001 cycles: 242992331 heartbeat IPC: 0.272124 cumulative IPC: 0.232105 (Simulation time: 3 hr 36 min 28 sec) 
Heartbeat CPU 0 instructions: 66000002 cycles: 247369232 heartbeat IPC: 0.228472 cumulative IPC: 0.232039 (Simulation time: 3 hr 39 min 59 sec) 
Heartbeat CPU 0 instructions: 67000002 cycles: 251508532 heartbeat IPC: 0.241587 cumulative IPC: 0.2322 (Simulation time: 3 hr 43 min 40 sec) 
Heartbeat CPU 0 instructions: 68000000 cycles: 255711875 heartbeat IPC: 0.237905 cumulative IPC: 0.232296 (Simulation time: 3 hr 47 min 14 sec) 
Heartbeat CPU 0 instructions: 69000000 cycles: 260328387 heartbeat IPC: 0.216614 cumulative IPC: 0.232011 (Simulation time: 3 hr 51 min 2 sec) 
Heartbeat CPU 0 instructions: 70000001 cycles: 264373724 heartbeat IPC: 0.247198 cumulative IPC: 0.232249 (Simulation time: 3 hr 54 min 9 sec) 
Heartbeat CPU 0 instructions: 71000003 cycles: 268658481 heartbeat IPC: 0.233386 cumulative IPC: 0.232267 (Simulation time: 3 hr 57 min 55 sec) 
Heartbeat CPU 0 instructions: 72000000 cycles: 273831263 heartbeat IPC: 0.193319 cumulative IPC: 0.231515 (Simulation time: 4 hr 1 min 40 sec) 
Heartbeat CPU 0 instructions: 73000002 cycles: 278102537 heartbeat IPC: 0.234123 cumulative IPC: 0.231556 (Simulation time: 4 hr 5 min 4 sec) 
Heartbeat CPU 0 instructions: 74000000 cycles: 282340582 heartbeat IPC: 0.235957 cumulative IPC: 0.231624 (Simulation time: 4 hr 8 min 42 sec) 
Heartbeat CPU 0 instructions: 75000003 cycles: 286731555 heartbeat IPC: 0.227741 cumulative IPC: 0.231563 (Simulation time: 4 hr 12 min 33 sec) 
Heartbeat CPU 0 instructions: 76000000 cycles: 290875505 heartbeat IPC: 0.241315 cumulative IPC: 0.231705 (Simulation time: 4 hr 15 min 56 sec) 
Heartbeat CPU 0 instructions: 77000002 cycles: 296398045 heartbeat IPC: 0.181076 cumulative IPC: 0.230742 (Simulation time: 4 hr 19 min 38 sec) 
Heartbeat CPU 0 instructions: 78000003 cycles: 300671223 heartbeat IPC: 0.234018 cumulative IPC: 0.230789 (Simulation time: 4 hr 22 min 35 sec) 
Heartbeat CPU 0 instructions: 79000002 cycles: 304889930 heartbeat IPC: 0.237039 cumulative IPC: 0.230878 (Simulation time: 4 hr 25 min 22 sec) 
Heartbeat CPU 0 instructions: 80000000 cycles: 308994876 heartbeat IPC: 0.243608 cumulative IPC: 0.23105 (Simulation time: 4 hr 28 min 5 sec) 
Heartbeat CPU 0 instructions: 81000002 cycles: 313654660 heartbeat IPC: 0.214603 cumulative IPC: 0.230801 (Simulation time: 4 hr 30 min 47 sec) 
Heartbeat CPU 0 instructions: 82000000 cycles: 318721466 heartbeat IPC: 0.197363 cumulative IPC: 0.230259 (Simulation time: 4 hr 33 min 17 sec) 
Heartbeat CPU 0 instructions: 83000002 cycles: 322907819 heartbeat IPC: 0.238872 cumulative IPC: 0.230373 (Simulation time: 4 hr 35 min 34 sec) 
Heartbeat CPU 0 instructions: 84000000 cycles: 327025212 heartbeat IPC: 0.242872 cumulative IPC: 0.230533 (Simulation time: 4 hr 37 min 37 sec) 
Heartbeat CPU 0 instructions: 85000000 cycles: 331192446 heartbeat IPC: 0.239967 cumulative IPC: 0.230654 (Simulation time: 4 hr 39 min 34 sec) 
Heartbeat CPU 0 instructions: 86000000 cycles: 335515697 heartbeat IPC: 0.231307 cumulative IPC: 0.230663 (Simulation time: 4 hr 41 min 39 sec) 
Heartbeat CPU 0 instructions: 87000001 cycles: 339543329 heartbeat IPC: 0.248285 cumulative IPC: 0.230875 (Simulation time: 4 hr 43 min 34 sec) 
Heartbeat CPU 0 instructions: 88000000 cycles: 343824967 heartbeat IPC: 0.233555 cumulative IPC: 0.230909 (Simulation time: 4 hr 45 min 19 sec) 
Heartbeat CPU 0 instructions: 89000003 cycles: 347690335 heartbeat IPC: 0.258708 cumulative IPC: 0.231224 (Simulation time: 4 hr 46 min 56 sec) 
Heartbeat CPU 0 instructions: 90000000 cycles: 351939978 heartbeat IPC: 0.235313 cumulative IPC: 0.231274 (Simulation time: 4 hr 48 min 28 sec) 
Heartbeat CPU 0 instructions: 91000001 cycles: 356105076 heartbeat IPC: 0.240091 cumulative IPC: 0.231379 (Simulation time: 4 hr 49 min 58 sec) 
Heartbeat CPU 0 instructions: 92000000 cycles: 360665996 heartbeat IPC: 0.219254 cumulative IPC: 0.231223 (Simulation time: 4 hr 51 min 27 sec) 
Heartbeat CPU 0 instructions: 93000001 cycles: 365831736 heartbeat IPC: 0.193583 cumulative IPC: 0.230683 (Simulation time: 4 hr 52 min 54 sec) 
Heartbeat CPU 0 instructions: 94000001 cycles: 369997966 heartbeat IPC: 0.240025 cumulative IPC: 0.23079 (Simulation time: 4 hr 54 min 1 sec) 
Heartbeat CPU 0 instructions: 95000000 cycles: 374316823 heartbeat IPC: 0.231543 cumulative IPC: 0.230798 (Simulation time: 4 hr 55 min 3 sec) 
Heartbeat CPU 0 instructions: 96000000 cycles: 379295659 heartbeat IPC: 0.20085 cumulative IPC: 0.230399 (Simulation time: 4 hr 55 min 59 sec) 
Heartbeat CPU 0 instructions: 97000000 cycles: 383230015 heartbeat IPC: 0.254171 cumulative IPC: 0.230647 (Simulation time: 4 hr 56 min 46 sec) 
Heartbeat CPU 0 instructions: 98000000 cycles: 388016230 heartbeat IPC: 0.208933 cumulative IPC: 0.230375 (Simulation time: 4 hr 57 min 36 sec) 
Heartbeat CPU 0 instructions: 99000000 cycles: 392991764 heartbeat IPC: 0.200983 cumulative IPC: 0.229997 (Simulation time: 4 hr 58 min 17 sec) 
Heartbeat CPU 0 instructions: 100000000 cycles: 397446216 heartbeat IPC: 0.224495 cumulative IPC: 0.229934 (Simulation time: 4 hr 58 min 53 sec) 
Heartbeat CPU 0 instructions: 101000003 cycles: 401588132 heartbeat IPC: 0.241435 cumulative IPC: 0.230055 (Simulation time: 4 hr 59 min 23 sec) 
Heartbeat CPU 0 instructions: 102000003 cycles: 406149595 heartbeat IPC: 0.219228 cumulative IPC: 0.229931 (Simulation time: 4 hr 59 min 52 sec) 
Heartbeat CPU 0 instructions: 103000000 cycles: 410348518 heartbeat IPC: 0.238156 cumulative IPC: 0.230017 (Simulation time: 5 hr 0 min 17 sec) 
Heartbeat CPU 0 instructions: 104000000 cycles: 414530594 heartbeat IPC: 0.239116 cumulative IPC: 0.23011 (Simulation time: 5 hr 0 min 43 sec) 
Heartbeat CPU 0 instructions: 105000003 cycles: 419217514 heartbeat IPC: 0.21336 cumulative IPC: 0.22992 (Simulation time: 5 hr 1 min 7 sec) 
Heartbeat CPU 0 instructions: 106000001 cycles: 423354159 heartbeat IPC: 0.241741 cumulative IPC: 0.230037 (Simulation time: 5 hr 1 min 29 sec) 
Heartbeat CPU 0 instructions: 107000000 cycles: 427931261 heartbeat IPC: 0.218479 cumulative IPC: 0.229912 (Simulation time: 5 hr 1 min 52 sec) 
Heartbeat CPU 0 instructions: 108000000 cycles: 432563320 heartbeat IPC: 0.215887 cumulative IPC: 0.229759 (Simulation time: 5 hr 2 min 13 sec) 
Heartbeat CPU 0 instructions: 109000000 cycles: 437337334 heartbeat IPC: 0.209467 cumulative IPC: 0.229535 (Simulation time: 5 hr 2 min 31 sec) 
Heartbeat CPU 0 instructions: 110000000 cycles: 441399662 heartbeat IPC: 0.246164 cumulative IPC: 0.22969 (Simulation time: 5 hr 2 min 47 sec) 
Finished CPU 0 instructions: 100000000 cycles: 435369486 cummulative IPC: 0.22969 (Simulation time: 5 hr 2 min 47 sec) 

ChampSim completed all CPUs

Region of Interest Statistics

CPU 0 cummulative IPC: 0.22969 instructions: 100000000 cycles: 435369486
LLC TOTAL     ACCESS:    4309249  HIT:          0  MISS:    4309249
LLC LOAD      ACCESS:    1525918  HIT:          0  MISS:    1525918
LLC RFO       ACCESS:     246586  HIT:          0  MISS:     246586
LLC PREFETCH  ACCESS:    1530701  HIT:          0  MISS:    1530701
LLC WRITEBACK ACCESS:    1006044  HIT:          0  MISS:    1006044
