
*** ChampSim Multicore Out-of-Order Simulator ***

Warmup Instructions: 10000000
Simulation Instructions: 100000000
Configuration: 2
Number of CPUs: 1
LLC sets: 2048
LLC ways: 16
Off-chip DRAM Channels: 1 Width: 64-bit Data Rate: 1600 MT/s

CPU 0 runs /datasets/cs240c-wi22-a00-public/data/Assignment2-gz/milc_360B.trace.gz
CPU 0 L1D next line prefetcher
CPU 0 L2C IP-based stride prefetcher
config 2, num_core 1, llc_sets 2048
Heartbeat CPU 0 instructions: 1000001 cycles: 549511 heartbeat IPC: 1.8198 cumulative IPC: 1.8198 (Simulation time: 0 hr 2 min 49 sec) 
Heartbeat CPU 0 instructions: 2000003 cycles: 1099026 heartbeat IPC: 1.81979 cumulative IPC: 1.8198 (Simulation time: 0 hr 5 min 43 sec) 
Heartbeat CPU 0 instructions: 3000001 cycles: 1648486 heartbeat IPC: 1.81997 cumulative IPC: 1.81985 (Simulation time: 0 hr 8 min 32 sec) 
Heartbeat CPU 0 instructions: 4000000 cycles: 2197959 heartbeat IPC: 1.81992 cumulative IPC: 1.81987 (Simulation time: 0 hr 11 min 24 sec) 
Heartbeat CPU 0 instructions: 5000002 cycles: 2747468 heartbeat IPC: 1.81981 cumulative IPC: 1.81986 (Simulation time: 0 hr 14 min 19 sec) 
Heartbeat CPU 0 instructions: 6000001 cycles: 3296983 heartbeat IPC: 1.81978 cumulative IPC: 1.81985 (Simulation time: 0 hr 17 min 16 sec) 
Heartbeat CPU 0 instructions: 7000000 cycles: 3846462 heartbeat IPC: 1.8199 cumulative IPC: 1.81985 (Simulation time: 0 hr 20 min 11 sec) 
Heartbeat CPU 0 instructions: 8000000 cycles: 4395923 heartbeat IPC: 1.81997 cumulative IPC: 1.81987 (Simulation time: 0 hr 22 min 53 sec) 
Heartbeat CPU 0 instructions: 9000001 cycles: 4945436 heartbeat IPC: 1.8198 cumulative IPC: 1.81986 (Simulation time: 0 hr 25 min 33 sec) 
Heartbeat CPU 0 instructions: 10000001 cycles: 5494911 heartbeat IPC: 1.81992 cumulative IPC: 1.81987 (Simulation time: 0 hr 28 min 12 sec) 

Warmup complete CPU 0 instructions: 10000001 cycles: 5494911 (Simulation time: 0 hr 28 min 12 sec) 

Heartbeat CPU 0 instructions: 11000001 cycles: 7197509 heartbeat IPC: 0.587338 cumulative IPC: 0.587338 (Simulation time: 0 hr 31 min 5 sec) 
Heartbeat CPU 0 instructions: 12000000 cycles: 8900816 heartbeat IPC: 0.587093 cumulative IPC: 0.587215 (Simulation time: 0 hr 33 min 55 sec) 
Heartbeat CPU 0 instructions: 13000001 cycles: 10602277 heartbeat IPC: 0.587731 cumulative IPC: 0.587387 (Simulation time: 0 hr 36 min 39 sec) 
Heartbeat CPU 0 instructions: 14000001 cycles: 12300553 heartbeat IPC: 0.588832 cumulative IPC: 0.587748 (Simulation time: 0 hr 39 min 37 sec) 
Heartbeat CPU 0 instructions: 15000003 cycles: 14000677 heartbeat IPC: 0.588194 cumulative IPC: 0.587837 (Simulation time: 0 hr 42 min 30 sec) 
Heartbeat CPU 0 instructions: 16000000 cycles: 15708657 heartbeat IPC: 0.585485 cumulative IPC: 0.587444 (Simulation time: 0 hr 45 min 35 sec) 
Heartbeat CPU 0 instructions: 17000003 cycles: 17408959 heartbeat IPC: 0.588133 cumulative IPC: 0.587542 (Simulation time: 0 hr 48 min 39 sec) 
Heartbeat CPU 0 instructions: 18000002 cycles: 19109619 heartbeat IPC: 0.588006 cumulative IPC: 0.5876 (Simulation time: 0 hr 51 min 38 sec) 
Heartbeat CPU 0 instructions: 19000000 cycles: 20811791 heartbeat IPC: 0.587484 cumulative IPC: 0.587587 (Simulation time: 0 hr 54 min 34 sec) 
Heartbeat CPU 0 instructions: 20000000 cycles: 22513269 heartbeat IPC: 0.587724 cumulative IPC: 0.587601 (Simulation time: 0 hr 57 min 22 sec) 
Heartbeat CPU 0 instructions: 21000002 cycles: 24208472 heartbeat IPC: 0.589901 cumulative IPC: 0.587809 (Simulation time: 1 hr 0 min 12 sec) 
Heartbeat CPU 0 instructions: 22000003 cycles: 25899586 heartbeat IPC: 0.591327 cumulative IPC: 0.588101 (Simulation time: 1 hr 2 min 59 sec) 
Heartbeat CPU 0 instructions: 23000001 cycles: 27598036 heartbeat IPC: 0.588771 cumulative IPC: 0.588152 (Simulation time: 1 hr 5 min 38 sec) 
Heartbeat CPU 0 instructions: 24000000 cycles: 29290893 heartbeat IPC: 0.590717 cumulative IPC: 0.588335 (Simulation time: 1 hr 8 min 22 sec) 
Heartbeat CPU 0 instructions: 25000003 cycles: 30989103 heartbeat IPC: 0.588857 cumulative IPC: 0.588369 (Simulation time: 1 hr 11 min 6 sec) 
Heartbeat CPU 0 instructions: 26000001 cycles: 32685062 heartbeat IPC: 0.589636 cumulative IPC: 0.588448 (Simulation time: 1 hr 13 min 50 sec) 
Heartbeat CPU 0 instructions: 27000001 cycles: 34376259 heartbeat IPC: 0.591297 cumulative IPC: 0.588615 (Simulation time: 1 hr 16 min 45 sec) 
Heartbeat CPU 0 instructions: 28000000 cycles: 36064258 heartbeat IPC: 0.592417 cumulative IPC: 0.588825 (Simulation time: 1 hr 19 min 24 sec) 
Heartbeat CPU 0 instructions: 29000001 cycles: 37755872 heartbeat IPC: 0.591152 cumulative IPC: 0.588947 (Simulation time: 1 hr 22 min 28 sec) 
Heartbeat CPU 0 instructions: 30000000 cycles: 39448264 heartbeat IPC: 0.590879 cumulative IPC: 0.589043 (Simulation time: 1 hr 25 min 4 sec) 
Heartbeat CPU 0 instructions: 31000003 cycles: 41140752 heartbeat IPC: 0.590848 cumulative IPC: 0.589129 (Simulation time: 1 hr 27 min 51 sec) 
Heartbeat CPU 0 instructions: 32000000 cycles: 42834030 heartbeat IPC: 0.590569 cumulative IPC: 0.589194 (Simulation time: 1 hr 30 min 32 sec) 
Heartbeat CPU 0 instructions: 33000000 cycles: 44526078 heartbeat IPC: 0.591 cumulative IPC: 0.589273 (Simulation time: 1 hr 33 min 19 sec) 
Heartbeat CPU 0 instructions: 34000003 cycles: 46213859 heartbeat IPC: 0.592496 cumulative IPC: 0.589406 (Simulation time: 1 hr 36 min 4 sec) 
Heartbeat CPU 0 instructions: 35000001 cycles: 47909024 heartbeat IPC: 0.589912 cumulative IPC: 0.589426 (Simulation time: 1 hr 38 min 52 sec) 
Heartbeat CPU 0 instructions: 36000000 cycles: 49603507 heartbeat IPC: 0.59015 cumulative IPC: 0.589454 (Simulation time: 1 hr 41 min 29 sec) 
Heartbeat CPU 0 instructions: 37000000 cycles: 51293110 heartbeat IPC: 0.591855 cumulative IPC: 0.589543 (Simulation time: 1 hr 44 min 8 sec) 
Heartbeat CPU 0 instructions: 38000001 cycles: 52983046 heartbeat IPC: 0.591739 cumulative IPC: 0.589621 (Simulation time: 1 hr 47 min 8 sec) 
Heartbeat CPU 0 instructions: 39000000 cycles: 54679438 heartbeat IPC: 0.589486 cumulative IPC: 0.589616 (Simulation time: 1 hr 49 min 50 sec) 
Heartbeat CPU 0 instructions: 40000000 cycles: 56371390 heartbeat IPC: 0.591033 cumulative IPC: 0.589663 (Simulation time: 1 hr 52 min 38 sec) 
Heartbeat CPU 0 instructions: 41000001 cycles: 58060409 heartbeat IPC: 0.59206 cumulative IPC: 0.58974 (Simulation time: 1 hr 55 min 19 sec) 
Heartbeat CPU 0 instructions: 42000001 cycles: 59758470 heartbeat IPC: 0.588907 cumulative IPC: 0.589714 (Simulation time: 1 hr 57 min 58 sec) 
Heartbeat CPU 0 instructions: 43000000 cycles: 61451565 heartbeat IPC: 0.590634 cumulative IPC: 0.589742 (Simulation time: 2 hr 0 min 40 sec) 
Heartbeat CPU 0 instructions: 44000000 cycles: 63517189 heartbeat IPC: 0.484115 cumulative IPC: 0.585982 (Simulation time: 2 hr 3 min 46 sec) 
Heartbeat CPU 0 instructions: 45000002 cycles: 65788784 heartbeat IPC: 0.44022 cumulative IPC: 0.58049 (Simulation time: 2 hr 6 min 51 sec) 
Heartbeat CPU 0 instructions: 46000000 cycles: 68011125 heartbeat IPC: 0.449975 cumulative IPC: 0.575851 (Simulation time: 2 hr 9 min 52 sec) 
Heartbeat CPU 0 instructions: 47000002 cycles: 70273804 heartbeat IPC: 0.441955 cumulative IPC: 0.571174 (Simulation time: 2 hr 12 min 35 sec) 
Heartbeat CPU 0 instructions: 48000000 cycles: 72491092 heartbeat IPC: 0.451001 cumulative IPC: 0.567196 (Simulation time: 2 hr 15 min 35 sec) 
Heartbeat CPU 0 instructions: 49000003 cycles: 74669006 heartbeat IPC: 0.459156 cumulative IPC: 0.563795 (Simulation time: 2 hr 18 min 32 sec) 
Heartbeat CPU 0 instructions: 50000002 cycles: 76651539 heartbeat IPC: 0.504405 cumulative IPC: 0.56214 (Simulation time: 2 hr 21 min 9 sec) 
Heartbeat CPU 0 instructions: 51000002 cycles: 77817702 heartbeat IPC: 0.857513 cumulative IPC: 0.566903 (Simulation time: 2 hr 23 min 39 sec) 
Heartbeat CPU 0 instructions: 52000000 cycles: 79682372 heartbeat IPC: 0.536287 cumulative IPC: 0.566133 (Simulation time: 2 hr 26 min 22 sec) 
Heartbeat CPU 0 instructions: 53000002 cycles: 81914532 heartbeat IPC: 0.447997 cumulative IPC: 0.562683 (Simulation time: 2 hr 29 min 3 sec) 
Heartbeat CPU 0 instructions: 54000003 cycles: 84155888 heartbeat IPC: 0.446159 cumulative IPC: 0.559363 (Simulation time: 2 hr 32 min 10 sec) 
Heartbeat CPU 0 instructions: 55000003 cycles: 86389435 heartbeat IPC: 0.447718 cumulative IPC: 0.55628 (Simulation time: 2 hr 35 min 1 sec) 
Heartbeat CPU 0 instructions: 56000000 cycles: 88622039 heartbeat IPC: 0.447906 cumulative IPC: 0.553369 (Simulation time: 2 hr 37 min 53 sec) 
Heartbeat CPU 0 instructions: 57000000 cycles: 90855506 heartbeat IPC: 0.447734 cumulative IPC: 0.550605 (Simulation time: 2 hr 40 min 30 sec) 
Heartbeat CPU 0 instructions: 58000000 cycles: 93084867 heartbeat IPC: 0.448559 cumulative IPC: 0.548008 (Simulation time: 2 hr 43 min 12 sec) 
Heartbeat CPU 0 instructions: 59000001 cycles: 95319584 heartbeat IPC: 0.447484 cumulative IPC: 0.545507 (Simulation time: 2 hr 45 min 40 sec) 
Heartbeat CPU 0 instructions: 60000000 cycles: 97546009 heartbeat IPC: 0.44915 cumulative IPC: 0.543177 (Simulation time: 2 hr 48 min 18 sec) 
Heartbeat CPU 0 instructions: 61000000 cycles: 99776450 heartbeat IPC: 0.448342 cumulative IPC: 0.540933 (Simulation time: 2 hr 50 min 59 sec) 
Heartbeat CPU 0 instructions: 62000003 cycles: 102006733 heartbeat IPC: 0.448375 cumulative IPC: 0.538794 (Simulation time: 2 hr 53 min 54 sec) 
Heartbeat CPU 0 instructions: 63000003 cycles: 104244004 heartbeat IPC: 0.446973 cumulative IPC: 0.536714 (Simulation time: 2 hr 56 min 38 sec) 
Heartbeat CPU 0 instructions: 64000000 cycles: 106477648 heartbeat IPC: 0.447698 cumulative IPC: 0.534745 (Simulation time: 2 hr 59 min 33 sec) 
Heartbeat CPU 0 instructions: 65000001 cycles: 108719789 heartbeat IPC: 0.446003 cumulative IPC: 0.532817 (Simulation time: 3 hr 2 min 31 sec) 
Heartbeat CPU 0 instructions: 66000001 cycles: 110948859 heartbeat IPC: 0.448618 cumulative IPC: 0.531038 (Simulation time: 3 hr 5 min 23 sec) 
Heartbeat CPU 0 instructions: 67000002 cycles: 113186327 heartbeat IPC: 0.446934 cumulative IPC: 0.52929 (Simulation time: 3 hr 8 min 17 sec) 
Heartbeat CPU 0 instructions: 68000000 cycles: 115417895 heartbeat IPC: 0.448115 cumulative IPC: 0.527642 (Simulation time: 3 hr 11 min 9 sec) 
Heartbeat CPU 0 instructions: 69000001 cycles: 117650522 heartbeat IPC: 0.447903 cumulative IPC: 0.526055 (Simulation time: 3 hr 13 min 54 sec) 
Heartbeat CPU 0 instructions: 70000000 cycles: 119882002 heartbeat IPC: 0.448133 cumulative IPC: 0.524535 (Simulation time: 3 hr 16 min 46 sec) 
Heartbeat CPU 0 instructions: 71000000 cycles: 122114558 heartbeat IPC: 0.447917 cumulative IPC: 0.523068 (Simulation time: 3 hr 19 min 21 sec) 
Heartbeat CPU 0 instructions: 72000000 cycles: 124343678 heartbeat IPC: 0.448608 cumulative IPC: 0.521671 (Simulation time: 3 hr 22 min 12 sec) 
Heartbeat CPU 0 instructions: 73000001 cycles: 126558548 heartbeat IPC: 0.451494 cumulative IPC: 0.520387 (Simulation time: 3 hr 24 min 58 sec) 
Heartbeat CPU 0 instructions: 74000002 cycles: 128147802 heartbeat IPC: 0.629227 cumulative IPC: 0.521798 (Simulation time: 3 hr 27 min 45 sec) 
Heartbeat CPU 0 instructions: 75000003 cycles: 129737916 heartbeat IPC: 0.628886 cumulative IPC: 0.523168 (Simulation time: 3 hr 30 min 36 sec) 
Heartbeat CPU 0 instructions: 76000000 cycles: 131326873 heartbeat IPC: 0.629342 cumulative IPC: 0.524509 (Simulation time: 3 hr 33 min 24 sec) 
Heartbeat CPU 0 instructions: 77000000 cycles: 132908997 heartbeat IPC: 0.632062 cumulative IPC: 0.525845 (Simulation time: 3 hr 36 min 19 sec) 
Heartbeat CPU 0 instructions: 78000000 cycles: 134500802 heartbeat IPC: 0.628218 cumulative IPC: 0.527108 (Simulation time: 3 hr 38 min 59 sec) 
Heartbeat CPU 0 instructions: 79000000 cycles: 136086644 heartbeat IPC: 0.63058 cumulative IPC: 0.528364 (Simulation time: 3 hr 41 min 49 sec) 
Heartbeat CPU 0 instructions: 80000000 cycles: 137673935 heartbeat IPC: 0.630004 cumulative IPC: 0.529585 (Simulation time: 3 hr 44 min 36 sec) 
Heartbeat CPU 0 instructions: 81000003 cycles: 139260756 heartbeat IPC: 0.630193 cumulative IPC: 0.530778 (Simulation time: 3 hr 47 min 27 sec) 
Heartbeat CPU 0 instructions: 82000003 cycles: 140851478 heartbeat IPC: 0.628645 cumulative IPC: 0.531928 (Simulation time: 3 hr 50 min 8 sec) 
Heartbeat CPU 0 instructions: 83000002 cycles: 142436543 heartbeat IPC: 0.630888 cumulative IPC: 0.533074 (Simulation time: 3 hr 52 min 42 sec) 
Heartbeat CPU 0 instructions: 84000000 cycles: 144028534 heartbeat IPC: 0.628143 cumulative IPC: 0.534166 (Simulation time: 3 hr 55 min 18 sec) 
Heartbeat CPU 0 instructions: 85000000 cycles: 145616552 heartbeat IPC: 0.629716 cumulative IPC: 0.535249 (Simulation time: 3 hr 57 min 50 sec) 
Heartbeat CPU 0 instructions: 86000000 cycles: 147204097 heartbeat IPC: 0.629903 cumulative IPC: 0.53631 (Simulation time: 4 hr 0 min 31 sec) 
Heartbeat CPU 0 instructions: 87000000 cycles: 148790227 heartbeat IPC: 0.630465 cumulative IPC: 0.537352 (Simulation time: 4 hr 3 min 2 sec) 
Heartbeat CPU 0 instructions: 88000000 cycles: 150377236 heartbeat IPC: 0.630116 cumulative IPC: 0.538368 (Simulation time: 4 hr 5 min 46 sec) 
Heartbeat CPU 0 instructions: 89000002 cycles: 151963280 heartbeat IPC: 0.630501 cumulative IPC: 0.539366 (Simulation time: 4 hr 8 min 19 sec) 
Heartbeat CPU 0 instructions: 90000002 cycles: 153549482 heartbeat IPC: 0.630437 cumulative IPC: 0.540341 (Simulation time: 4 hr 10 min 45 sec) 
Heartbeat CPU 0 instructions: 91000003 cycles: 155132444 heartbeat IPC: 0.631728 cumulative IPC: 0.541308 (Simulation time: 4 hr 13 min 15 sec) 
Heartbeat CPU 0 instructions: 92000000 cycles: 156723650 heartbeat IPC: 0.628452 cumulative IPC: 0.542225 (Simulation time: 4 hr 15 min 45 sec) 
Heartbeat CPU 0 instructions: 93000000 cycles: 158306103 heartbeat IPC: 0.63193 cumulative IPC: 0.543154 (Simulation time: 4 hr 18 min 13 sec) 
Heartbeat CPU 0 instructions: 94000000 cycles: 159895003 heartbeat IPC: 0.629366 cumulative IPC: 0.544041 (Simulation time: 4 hr 20 min 41 sec) 
Heartbeat CPU 0 instructions: 95000000 cycles: 161478475 heartbeat IPC: 0.631524 cumulative IPC: 0.544929 (Simulation time: 4 hr 22 min 54 sec) 
Heartbeat CPU 0 instructions: 96000000 cycles: 163069558 heartbeat IPC: 0.628503 cumulative IPC: 0.545773 (Simulation time: 4 hr 25 min 6 sec) 
Heartbeat CPU 0 instructions: 97000002 cycles: 164648196 heartbeat IPC: 0.633459 cumulative IPC: 0.546643 (Simulation time: 4 hr 27 min 15 sec) 
Heartbeat CPU 0 instructions: 98000003 cycles: 166221748 heartbeat IPC: 0.635506 cumulative IPC: 0.547513 (Simulation time: 4 hr 29 min 14 sec) 
Heartbeat CPU 0 instructions: 99000000 cycles: 167795663 heartbeat IPC: 0.635356 cumulative IPC: 0.548365 (Simulation time: 4 hr 31 min 8 sec) 
Heartbeat CPU 0 instructions: 100000000 cycles: 169369115 heartbeat IPC: 0.635545 cumulative IPC: 0.549202 (Simulation time: 4 hr 32 min 50 sec) 
Heartbeat CPU 0 instructions: 101000002 cycles: 170945617 heartbeat IPC: 0.634317 cumulative IPC: 0.550013 (Simulation time: 4 hr 34 min 35 sec) 
Heartbeat CPU 0 instructions: 102000000 cycles: 172525118 heartbeat IPC: 0.63311 cumulative IPC: 0.550799 (Simulation time: 4 hr 36 min 15 sec) 
Heartbeat CPU 0 instructions: 103000002 cycles: 174100008 heartbeat IPC: 0.634966 cumulative IPC: 0.551585 (Simulation time: 4 hr 37 min 55 sec) 
Heartbeat CPU 0 instructions: 104000000 cycles: 175676708 heartbeat IPC: 0.634235 cumulative IPC: 0.55235 (Simulation time: 4 hr 39 min 27 sec) 
Heartbeat CPU 0 instructions: 105000003 cycles: 177248241 heartbeat IPC: 0.636323 cumulative IPC: 0.553119 (Simulation time: 4 hr 41 min 0 sec) 
Heartbeat CPU 0 instructions: 106000002 cycles: 178822402 heartbeat IPC: 0.635258 cumulative IPC: 0.553865 (Simulation time: 4 hr 42 min 28 sec) 
Heartbeat CPU 0 instructions: 107000000 cycles: 180401603 heartbeat IPC: 0.63323 cumulative IPC: 0.554581 (Simulation time: 4 hr 43 min 49 sec) 
Heartbeat CPU 0 instructions: 108000000 cycles: 181973502 heartbeat IPC: 0.636173 cumulative IPC: 0.555308 (Simulation time: 4 hr 45 min 4 sec) 
Heartbeat CPU 0 instructions: 109000002 cycles: 183544580 heartbeat IPC: 0.636507 cumulative IPC: 0.556025 (Simulation time: 4 hr 46 min 19 sec) 
Heartbeat CPU 0 instructions: 110000000 cycles: 185118500 heartbeat IPC: 0.635355 cumulative IPC: 0.55672 (Simulation time: 4 hr 47 min 32 sec) 
Finished CPU 0 instructions: 100000003 cycles: 179623590 cummulative IPC: 0.55672 (Simulation time: 4 hr 47 min 32 sec) 

ChampSim completed all CPUs

Region of Interest Statistics

CPU 0 cummulative IPC: 0.55672 instructions: 100000003 cycles: 179623590
LLC TOTAL     ACCESS:    3481391  HIT:          0  MISS:    3481391
LLC LOAD      ACCESS:    1002021  HIT:          0  MISS:    1002021
LLC RFO       ACCESS:     140009  HIT:          0  MISS:     140009
LLC PREFETCH  ACCESS:    1596690  HIT:          0  MISS:    1596690
LLC WRITEBACK ACCESS:     742671  HIT:          0  MISS:     742671
