
*** ChampSim Multicore Out-of-Order Simulator ***

Warmup Instructions: 10000000
Simulation Instructions: 100000000
Configuration: 2
Number of CPUs: 1
LLC sets: 2048
LLC ways: 16
Off-chip DRAM Channels: 1 Width: 64-bit Data Rate: 1600 MT/s

CPU 0 runs /datasets/cs240c-wi22-a00-public/data/Assignment2-gz/mcf_250B.trace.gz
CPU 0 L1D next line prefetcher
CPU 0 L2C IP-based stride prefetcher
config 2, num_core 1, llc_sets 2048
Heartbeat CPU 0 instructions: 1000000 cycles: 537095 heartbeat IPC: 1.86187 cumulative IPC: 1.86187 (Simulation time: 0 hr 3 min 11 sec) 
Heartbeat CPU 0 instructions: 2000003 cycles: 1054608 heartbeat IPC: 1.93232 cumulative IPC: 1.89644 (Simulation time: 0 hr 6 min 39 sec) 
Heartbeat CPU 0 instructions: 3000002 cycles: 1555605 heartbeat IPC: 1.99602 cumulative IPC: 1.92851 (Simulation time: 0 hr 9 min 49 sec) 
Heartbeat CPU 0 instructions: 4000000 cycles: 2071623 heartbeat IPC: 1.93791 cumulative IPC: 1.93085 (Simulation time: 0 hr 13 min 20 sec) 
Heartbeat CPU 0 instructions: 5000002 cycles: 2581976 heartbeat IPC: 1.95943 cumulative IPC: 1.9365 (Simulation time: 0 hr 16 min 50 sec) 
Heartbeat CPU 0 instructions: 6000002 cycles: 3091846 heartbeat IPC: 1.96128 cumulative IPC: 1.94059 (Simulation time: 0 hr 19 min 59 sec) 
Heartbeat CPU 0 instructions: 7000002 cycles: 3639882 heartbeat IPC: 1.8247 cumulative IPC: 1.92314 (Simulation time: 0 hr 23 min 13 sec) 
Heartbeat CPU 0 instructions: 8000000 cycles: 4159333 heartbeat IPC: 1.92511 cumulative IPC: 1.92339 (Simulation time: 0 hr 26 min 28 sec) 
Heartbeat CPU 0 instructions: 9000002 cycles: 4678513 heartbeat IPC: 1.92612 cumulative IPC: 1.92369 (Simulation time: 0 hr 29 min 39 sec) 
Heartbeat CPU 0 instructions: 10000000 cycles: 5194316 heartbeat IPC: 1.93872 cumulative IPC: 1.92518 (Simulation time: 0 hr 32 min 47 sec) 

Warmup complete CPU 0 instructions: 10000003 cycles: 5194317 (Simulation time: 0 hr 32 min 47 sec) 

Heartbeat CPU 0 instructions: 11000001 cycles: 22691642 heartbeat IPC: 0.0571516 cumulative IPC: 0.0571515 (Simulation time: 0 hr 38 min 25 sec) 
Heartbeat CPU 0 instructions: 12000000 cycles: 39491864 heartbeat IPC: 0.059523 cumulative IPC: 0.0583131 (Simulation time: 0 hr 44 min 31 sec) 
Heartbeat CPU 0 instructions: 13000001 cycles: 56854018 heartbeat IPC: 0.0575966 cumulative IPC: 0.0580723 (Simulation time: 0 hr 50 min 5 sec) 
Heartbeat CPU 0 instructions: 14000003 cycles: 74210802 heartbeat IPC: 0.0576145 cumulative IPC: 0.0579572 (Simulation time: 0 hr 55 min 25 sec) 
Heartbeat CPU 0 instructions: 15000002 cycles: 91714294 heartbeat IPC: 0.0571314 cumulative IPC: 0.0577901 (Simulation time: 1 hr 0 min 50 sec) 
Heartbeat CPU 0 instructions: 16000000 cycles: 108198848 heartbeat IPC: 0.0606627 cumulative IPC: 0.0582498 (Simulation time: 1 hr 6 min 5 sec) 
Heartbeat CPU 0 instructions: 17000000 cycles: 125286088 heartbeat IPC: 0.0585232 cumulative IPC: 0.0582887 (Simulation time: 1 hr 11 min 35 sec) 
Heartbeat CPU 0 instructions: 18000002 cycles: 141474185 heartbeat IPC: 0.0617739 cumulative IPC: 0.0587027 (Simulation time: 1 hr 17 min 30 sec) 
Heartbeat CPU 0 instructions: 19000000 cycles: 158153396 heartbeat IPC: 0.0599548 cumulative IPC: 0.0588392 (Simulation time: 1 hr 23 min 9 sec) 
Heartbeat CPU 0 instructions: 20000000 cycles: 174861958 heartbeat IPC: 0.0598496 cumulative IPC: 0.0589387 (Simulation time: 1 hr 28 min 33 sec) 
Heartbeat CPU 0 instructions: 21000000 cycles: 191027753 heartbeat IPC: 0.061859 cumulative IPC: 0.0591928 (Simulation time: 1 hr 34 min 10 sec) 
Heartbeat CPU 0 instructions: 22000000 cycles: 206848700 heartbeat IPC: 0.0632073 cumulative IPC: 0.0595077 (Simulation time: 1 hr 39 min 31 sec) 
Heartbeat CPU 0 instructions: 23000003 cycles: 223661784 heartbeat IPC: 0.0594777 cumulative IPC: 0.0595054 (Simulation time: 1 hr 44 min 56 sec) 
Heartbeat CPU 0 instructions: 24000000 cycles: 240248606 heartbeat IPC: 0.0602886 cumulative IPC: 0.0595607 (Simulation time: 1 hr 50 min 44 sec) 
Heartbeat CPU 0 instructions: 25000002 cycles: 257446538 heartbeat IPC: 0.0581466 cumulative IPC: 0.0594643 (Simulation time: 1 hr 56 min 31 sec) 
Heartbeat CPU 0 instructions: 26000000 cycles: 274867949 heartbeat IPC: 0.0574005 cumulative IPC: 0.059331 (Simulation time: 2 hr 2 min 10 sec) 
Heartbeat CPU 0 instructions: 27000003 cycles: 292354179 heartbeat IPC: 0.057188 cumulative IPC: 0.0592005 (Simulation time: 2 hr 7 min 42 sec) 
Heartbeat CPU 0 instructions: 28000000 cycles: 310089549 heartbeat IPC: 0.0563843 cumulative IPC: 0.0590367 (Simulation time: 2 hr 13 min 10 sec) 
Heartbeat CPU 0 instructions: 29000000 cycles: 328088582 heartbeat IPC: 0.0555585 cumulative IPC: 0.0588428 (Simulation time: 2 hr 18 min 35 sec) 
Heartbeat CPU 0 instructions: 30000001 cycles: 345589789 heartbeat IPC: 0.057139 cumulative IPC: 0.0587552 (Simulation time: 2 hr 23 min 51 sec) 
Heartbeat CPU 0 instructions: 31000000 cycles: 362944721 heartbeat IPC: 0.0576205 cumulative IPC: 0.0587001 (Simulation time: 2 hr 29 min 7 sec) 
Heartbeat CPU 0 instructions: 32000000 cycles: 379698786 heartbeat IPC: 0.059687 cumulative IPC: 0.0587443 (Simulation time: 2 hr 34 min 10 sec) 
Heartbeat CPU 0 instructions: 33000000 cycles: 397158298 heartbeat IPC: 0.0572754 cumulative IPC: 0.0586789 (Simulation time: 2 hr 39 min 52 sec) 
Heartbeat CPU 0 instructions: 34000000 cycles: 414525042 heartbeat IPC: 0.0575813 cumulative IPC: 0.0586323 (Simulation time: 2 hr 45 min 28 sec) 
Heartbeat CPU 0 instructions: 35000000 cycles: 431526211 heartbeat IPC: 0.0588195 cumulative IPC: 0.0586398 (Simulation time: 2 hr 51 min 28 sec) 
Heartbeat CPU 0 instructions: 36000000 cycles: 448286129 heartbeat IPC: 0.0596662 cumulative IPC: 0.0586786 (Simulation time: 2 hr 57 min 25 sec) 
Heartbeat CPU 0 instructions: 37000002 cycles: 465521233 heartbeat IPC: 0.0580212 cumulative IPC: 0.058654 (Simulation time: 3 hr 3 min 47 sec) 
Heartbeat CPU 0 instructions: 38000000 cycles: 482878784 heartbeat IPC: 0.0576117 cumulative IPC: 0.0586161 (Simulation time: 3 hr 9 min 41 sec) 
Heartbeat CPU 0 instructions: 39000000 cycles: 500112870 heartbeat IPC: 0.0580245 cumulative IPC: 0.0585955 (Simulation time: 3 hr 15 min 37 sec) 
Heartbeat CPU 0 instructions: 40000000 cycles: 517357960 heartbeat IPC: 0.0579875 cumulative IPC: 0.058575 (Simulation time: 3 hr 21 min 33 sec) 
Heartbeat CPU 0 instructions: 41000000 cycles: 534668579 heartbeat IPC: 0.057768 cumulative IPC: 0.0585486 (Simulation time: 3 hr 27 min 45 sec) 
Heartbeat CPU 0 instructions: 42000000 cycles: 551953658 heartbeat IPC: 0.0578534 cumulative IPC: 0.0585267 (Simulation time: 3 hr 33 min 37 sec) 
Heartbeat CPU 0 instructions: 43000000 cycles: 569085836 heartbeat IPC: 0.0583697 cumulative IPC: 0.0585219 (Simulation time: 3 hr 39 min 32 sec) 
Heartbeat CPU 0 instructions: 44000000 cycles: 586447610 heartbeat IPC: 0.0575978 cumulative IPC: 0.0584943 (Simulation time: 3 hr 45 min 41 sec) 
Heartbeat CPU 0 instructions: 45000001 cycles: 603740552 heartbeat IPC: 0.0578271 cumulative IPC: 0.058475 (Simulation time: 3 hr 51 min 50 sec) 
Heartbeat CPU 0 instructions: 46000000 cycles: 621205773 heartbeat IPC: 0.0572566 cumulative IPC: 0.0584405 (Simulation time: 3 hr 57 min 53 sec) 
Heartbeat CPU 0 instructions: 47000002 cycles: 638486381 heartbeat IPC: 0.0578685 cumulative IPC: 0.0584249 (Simulation time: 4 hr 3 min 37 sec) 
Heartbeat CPU 0 instructions: 48000000 cycles: 655305973 heartbeat IPC: 0.0594544 cumulative IPC: 0.0584515 (Simulation time: 4 hr 9 min 10 sec) 
Heartbeat CPU 0 instructions: 49000000 cycles: 672847129 heartbeat IPC: 0.0570088 cumulative IPC: 0.0584136 (Simulation time: 4 hr 14 min 39 sec) 
Heartbeat CPU 0 instructions: 50000002 cycles: 690307980 heartbeat IPC: 0.0572711 cumulative IPC: 0.0583845 (Simulation time: 4 hr 19 min 57 sec) 
Heartbeat CPU 0 instructions: 51000002 cycles: 707681538 heartbeat IPC: 0.0575587 cumulative IPC: 0.058364 (Simulation time: 4 hr 24 min 40 sec) 
Heartbeat CPU 0 instructions: 52000000 cycles: 725044462 heartbeat IPC: 0.0575939 cumulative IPC: 0.0583455 (Simulation time: 4 hr 29 min 14 sec) 
Heartbeat CPU 0 instructions: 53000000 cycles: 742435826 heartbeat IPC: 0.0574998 cumulative IPC: 0.0583255 (Simulation time: 4 hr 33 min 26 sec) 
Heartbeat CPU 0 instructions: 54000000 cycles: 759643660 heartbeat IPC: 0.0581131 cumulative IPC: 0.0583207 (Simulation time: 4 hr 37 min 5 sec) 
Heartbeat CPU 0 instructions: 55000000 cycles: 776946537 heartbeat IPC: 0.0577939 cumulative IPC: 0.0583089 (Simulation time: 4 hr 40 min 28 sec) 
Heartbeat CPU 0 instructions: 56000000 cycles: 794243875 heartbeat IPC: 0.0578124 cumulative IPC: 0.058298 (Simulation time: 4 hr 43 min 47 sec) 
Heartbeat CPU 0 instructions: 57000000 cycles: 811717849 heartbeat IPC: 0.057228 cumulative IPC: 0.0582748 (Simulation time: 4 hr 46 min 25 sec) 
Heartbeat CPU 0 instructions: 58000000 cycles: 828955250 heartbeat IPC: 0.0580134 cumulative IPC: 0.0582693 (Simulation time: 4 hr 48 min 51 sec) 
Heartbeat CPU 0 instructions: 59000001 cycles: 846332146 heartbeat IPC: 0.0575477 cumulative IPC: 0.0582544 (Simulation time: 4 hr 51 min 5 sec) 
Heartbeat CPU 0 instructions: 60000000 cycles: 863494818 heartbeat IPC: 0.0582659 cumulative IPC: 0.0582547 (Simulation time: 4 hr 53 min 2 sec) 
Heartbeat CPU 0 instructions: 61000002 cycles: 880688292 heartbeat IPC: 0.0581617 cumulative IPC: 0.0582528 (Simulation time: 4 hr 54 min 41 sec) 
Heartbeat CPU 0 instructions: 62000000 cycles: 895135253 heartbeat IPC: 0.0692186 cumulative IPC: 0.0584308 (Simulation time: 4 hr 56 min 1 sec) 
Heartbeat CPU 0 instructions: 63000001 cycles: 911591928 heartbeat IPC: 0.0607657 cumulative IPC: 0.0584732 (Simulation time: 4 hr 57 min 12 sec) 
Heartbeat CPU 0 instructions: 64000000 cycles: 928440338 heartbeat IPC: 0.0593527 cumulative IPC: 0.0584893 (Simulation time: 4 hr 58 min 15 sec) 
Heartbeat CPU 0 instructions: 65000000 cycles: 944415770 heartbeat IPC: 0.0625961 cumulative IPC: 0.0585591 (Simulation time: 4 hr 59 min 7 sec) 
Heartbeat CPU 0 instructions: 66000000 cycles: 961181540 heartbeat IPC: 0.0596453 cumulative IPC: 0.0585782 (Simulation time: 4 hr 59 min 52 sec) 
Heartbeat CPU 0 instructions: 67000000 cycles: 978332806 heartbeat IPC: 0.0583047 cumulative IPC: 0.0585734 (Simulation time: 5 hr 0 min 32 sec) 
Heartbeat CPU 0 instructions: 68000000 cycles: 995600421 heartbeat IPC: 0.0579119 cumulative IPC: 0.0585618 (Simulation time: 5 hr 1 min 8 sec) 
Heartbeat CPU 0 instructions: 69000000 cycles: 1012333481 heartbeat IPC: 0.0597619 cumulative IPC: 0.0585818 (Simulation time: 5 hr 1 min 43 sec) 
Heartbeat CPU 0 instructions: 70000000 cycles: 1028872356 heartbeat IPC: 0.0604636 cumulative IPC: 0.0586122 (Simulation time: 5 hr 2 min 11 sec) 
Heartbeat CPU 0 instructions: 71000000 cycles: 1045373500 heartbeat IPC: 0.0606019 cumulative IPC: 0.0586437 (Simulation time: 5 hr 2 min 36 sec) 
Heartbeat CPU 0 instructions: 72000000 cycles: 1062035117 heartbeat IPC: 0.0600182 cumulative IPC: 0.0586654 (Simulation time: 5 hr 2 min 59 sec) 
Heartbeat CPU 0 instructions: 73000000 cycles: 1078912414 heartbeat IPC: 0.0592512 cumulative IPC: 0.0586746 (Simulation time: 5 hr 3 min 21 sec) 
Heartbeat CPU 0 instructions: 74000001 cycles: 1095825633 heartbeat IPC: 0.0591254 cumulative IPC: 0.0586816 (Simulation time: 5 hr 3 min 43 sec) 
Heartbeat CPU 0 instructions: 75000002 cycles: 1112274062 heartbeat IPC: 0.0607961 cumulative IPC: 0.058713 (Simulation time: 5 hr 4 min 1 sec) 
Heartbeat CPU 0 instructions: 76000000 cycles: 1128918121 heartbeat IPC: 0.0600814 cumulative IPC: 0.0587333 (Simulation time: 5 hr 4 min 19 sec) 
Heartbeat CPU 0 instructions: 77000003 cycles: 1145344361 heartbeat IPC: 0.0608784 cumulative IPC: 0.0587642 (Simulation time: 5 hr 4 min 40 sec) 
Heartbeat CPU 0 instructions: 78000000 cycles: 1161966681 heartbeat IPC: 0.0601599 cumulative IPC: 0.0587843 (Simulation time: 5 hr 5 min 0 sec) 
Heartbeat CPU 0 instructions: 79000000 cycles: 1178419500 heartbeat IPC: 0.0607799 cumulative IPC: 0.0588122 (Simulation time: 5 hr 5 min 21 sec) 
Heartbeat CPU 0 instructions: 80000000 cycles: 1194839371 heartbeat IPC: 0.0609018 cumulative IPC: 0.0588411 (Simulation time: 5 hr 5 min 40 sec) 
Heartbeat CPU 0 instructions: 81000001 cycles: 1211209325 heartbeat IPC: 0.0610876 cumulative IPC: 0.0588716 (Simulation time: 5 hr 5 min 58 sec) 
Heartbeat CPU 0 instructions: 82000001 cycles: 1226554983 heartbeat IPC: 0.065165 cumulative IPC: 0.0589506 (Simulation time: 5 hr 6 min 17 sec) 
Heartbeat CPU 0 instructions: 83000002 cycles: 1240896788 heartbeat IPC: 0.0697263 cumulative IPC: 0.0590757 (Simulation time: 5 hr 6 min 35 sec) 
Heartbeat CPU 0 instructions: 84000000 cycles: 1254957016 heartbeat IPC: 0.0711225 cumulative IPC: 0.0592112 (Simulation time: 5 hr 6 min 52 sec) 
Heartbeat CPU 0 instructions: 85000000 cycles: 1269841870 heartbeat IPC: 0.0671824 cumulative IPC: 0.0593051 (Simulation time: 5 hr 7 min 10 sec) 
Heartbeat CPU 0 instructions: 86000001 cycles: 1284445974 heartbeat IPC: 0.068474 cumulative IPC: 0.0594097 (Simulation time: 5 hr 7 min 26 sec) 
Heartbeat CPU 0 instructions: 87000001 cycles: 1300535980 heartbeat IPC: 0.0621504 cumulative IPC: 0.0594438 (Simulation time: 5 hr 7 min 44 sec) 
Heartbeat CPU 0 instructions: 88000000 cycles: 1316329175 heartbeat IPC: 0.0633183 cumulative IPC: 0.0594904 (Simulation time: 5 hr 8 min 0 sec) 
Heartbeat CPU 0 instructions: 89000001 cycles: 1331547907 heartbeat IPC: 0.0657086 cumulative IPC: 0.0595618 (Simulation time: 5 hr 8 min 14 sec) 
Heartbeat CPU 0 instructions: 90000001 cycles: 1344169739 heartbeat IPC: 0.0792278 cumulative IPC: 0.0597472 (Simulation time: 5 hr 8 min 29 sec) 
Heartbeat CPU 0 instructions: 91000000 cycles: 1360123210 heartbeat IPC: 0.0626822 cumulative IPC: 0.0597817 (Simulation time: 5 hr 8 min 42 sec) 
Heartbeat CPU 0 instructions: 92000000 cycles: 1373026671 heartbeat IPC: 0.0774986 cumulative IPC: 0.0599489 (Simulation time: 5 hr 8 min 54 sec) 
Heartbeat CPU 0 instructions: 93000000 cycles: 1390283571 heartbeat IPC: 0.0579478 cumulative IPC: 0.0599239 (Simulation time: 5 hr 9 min 8 sec) 
Heartbeat CPU 0 instructions: 94000000 cycles: 1407518087 heartbeat IPC: 0.0580231 cumulative IPC: 0.0599006 (Simulation time: 5 hr 9 min 23 sec) 
Heartbeat CPU 0 instructions: 95000000 cycles: 1424672170 heartbeat IPC: 0.0582952 cumulative IPC: 0.0598812 (Simulation time: 5 hr 9 min 36 sec) 
Heartbeat CPU 0 instructions: 96000000 cycles: 1442002055 heartbeat IPC: 0.0577038 cumulative IPC: 0.0598549 (Simulation time: 5 hr 9 min 49 sec) 
Heartbeat CPU 0 instructions: 97000000 cycles: 1459279941 heartbeat IPC: 0.0578775 cumulative IPC: 0.0598314 (Simulation time: 5 hr 10 min 2 sec) 
Heartbeat CPU 0 instructions: 98000000 cycles: 1476557296 heartbeat IPC: 0.0578792 cumulative IPC: 0.0598085 (Simulation time: 5 hr 10 min 13 sec) 
Heartbeat CPU 0 instructions: 99000000 cycles: 1493530813 heartbeat IPC: 0.0589153 cumulative IPC: 0.0597983 (Simulation time: 5 hr 10 min 24 sec) 
Heartbeat CPU 0 instructions: 100000000 cycles: 1510810616 heartbeat IPC: 0.057871 cumulative IPC: 0.0597762 (Simulation time: 5 hr 10 min 33 sec) 
Heartbeat CPU 0 instructions: 101000002 cycles: 1528150040 heartbeat IPC: 0.0576722 cumulative IPC: 0.0597522 (Simulation time: 5 hr 10 min 42 sec) 
Heartbeat CPU 0 instructions: 102000002 cycles: 1545591255 heartbeat IPC: 0.0573355 cumulative IPC: 0.0597249 (Simulation time: 5 hr 10 min 51 sec) 
Heartbeat CPU 0 instructions: 103000000 cycles: 1563261869 heartbeat IPC: 0.056591 cumulative IPC: 0.0596893 (Simulation time: 5 hr 11 min 1 sec) 
Heartbeat CPU 0 instructions: 104000000 cycles: 1580929123 heartbeat IPC: 0.0566019 cumulative IPC: 0.0596547 (Simulation time: 5 hr 11 min 10 sec) 
Heartbeat CPU 0 instructions: 105000000 cycles: 1598632090 heartbeat IPC: 0.0564877 cumulative IPC: 0.0596195 (Simulation time: 5 hr 11 min 20 sec) 
Heartbeat CPU 0 instructions: 106000002 cycles: 1616188380 heartbeat IPC: 0.0569598 cumulative IPC: 0.0595905 (Simulation time: 5 hr 11 min 29 sec) 
Heartbeat CPU 0 instructions: 107000003 cycles: 1633618864 heartbeat IPC: 0.0573708 cumulative IPC: 0.0595668 (Simulation time: 5 hr 11 min 38 sec) 
Heartbeat CPU 0 instructions: 108000000 cycles: 1651038775 heartbeat IPC: 0.0574054 cumulative IPC: 0.0595439 (Simulation time: 5 hr 11 min 46 sec) 
Heartbeat CPU 0 instructions: 109000000 cycles: 1668135985 heartbeat IPC: 0.0584891 cumulative IPC: 0.0595331 (Simulation time: 5 hr 11 min 56 sec) 
Heartbeat CPU 0 instructions: 110000000 cycles: 1685420268 heartbeat IPC: 0.057856 cumulative IPC: 0.0595158 (Simulation time: 5 hr 12 min 4 sec) 
Finished CPU 0 instructions: 100000000 cycles: 1680225953 cummulative IPC: 0.0595158 (Simulation time: 5 hr 12 min 4 sec) 

ChampSim completed all CPUs

Region of Interest Statistics

CPU 0 cummulative IPC: 0.0595158 instructions: 100000000 cycles: 1680225953
LLC TOTAL     ACCESS:   26994257  HIT:          0  MISS:   26994257
LLC LOAD      ACCESS:   11742878  HIT:          0  MISS:   11742878
LLC RFO       ACCESS:      27358  HIT:          0  MISS:      27358
LLC PREFETCH  ACCESS:   14890263  HIT:          0  MISS:   14890263
LLC WRITEBACK ACCESS:     333758  HIT:          0  MISS:     333758
