
*** ChampSim Multicore Out-of-Order Simulator ***

Warmup Instructions: 10000000
Simulation Instructions: 100000000
Configuration: 2
Number of CPUs: 1
LLC sets: 2048
LLC ways: 16
Off-chip DRAM Channels: 1 Width: 64-bit Data Rate: 1600 MT/s

CPU 0 runs /datasets/cs240c-wi22-a00-public/data/Assignment2-gz/mcf_158B.trace.gz
CPU 0 L1D next line prefetcher
CPU 0 L2C IP-based stride prefetcher
Initialize SRRIP state
Heartbeat CPU 0 instructions: 1000002 cycles: 512353 heartbeat IPC: 1.95178 cumulative IPC: 1.95178 (Simulation time: 0 hr 2 min 3 sec) 
Heartbeat CPU 0 instructions: 2000002 cycles: 1023665 heartbeat IPC: 1.95575 cumulative IPC: 1.95377 (Simulation time: 0 hr 4 min 6 sec) 
Heartbeat CPU 0 instructions: 3000000 cycles: 1536775 heartbeat IPC: 1.9489 cumulative IPC: 1.95214 (Simulation time: 0 hr 6 min 10 sec) 
Heartbeat CPU 0 instructions: 4000000 cycles: 2048088 heartbeat IPC: 1.95575 cumulative IPC: 1.95304 (Simulation time: 0 hr 8 min 8 sec) 
Heartbeat CPU 0 instructions: 5000002 cycles: 2556333 heartbeat IPC: 1.96756 cumulative IPC: 1.95593 (Simulation time: 0 hr 10 min 7 sec) 
Heartbeat CPU 0 instructions: 6000001 cycles: 3069578 heartbeat IPC: 1.94839 cumulative IPC: 1.95467 (Simulation time: 0 hr 12 min 5 sec) 
Heartbeat CPU 0 instructions: 7000001 cycles: 3578922 heartbeat IPC: 1.96331 cumulative IPC: 1.9559 (Simulation time: 0 hr 13 min 59 sec) 
Heartbeat CPU 0 instructions: 8000000 cycles: 4090038 heartbeat IPC: 1.9565 cumulative IPC: 1.95597 (Simulation time: 0 hr 16 min 1 sec) 
Heartbeat CPU 0 instructions: 9000000 cycles: 4609380 heartbeat IPC: 1.92551 cumulative IPC: 1.95254 (Simulation time: 0 hr 18 min 0 sec) 
Heartbeat CPU 0 instructions: 10000001 cycles: 5143412 heartbeat IPC: 1.87255 cumulative IPC: 1.94423 (Simulation time: 0 hr 19 min 47 sec) 

Warmup complete CPU 0 instructions: 10000001 cycles: 5143412 (Simulation time: 0 hr 19 min 47 sec) 

Heartbeat CPU 0 instructions: 11000001 cycles: 14699522 heartbeat IPC: 0.104645 cumulative IPC: 0.104645 (Simulation time: 0 hr 22 min 22 sec) 
Heartbeat CPU 0 instructions: 12000000 cycles: 23999266 heartbeat IPC: 0.10753 cumulative IPC: 0.106068 (Simulation time: 0 hr 25 min 9 sec) 
Heartbeat CPU 0 instructions: 13000001 cycles: 32750458 heartbeat IPC: 0.11427 cumulative IPC: 0.108668 (Simulation time: 0 hr 27 min 35 sec) 
Heartbeat CPU 0 instructions: 14000001 cycles: 40794767 heartbeat IPC: 0.124311 cumulative IPC: 0.112198 (Simulation time: 0 hr 30 min 9 sec) 
Heartbeat CPU 0 instructions: 15000000 cycles: 49425252 heartbeat IPC: 0.115868 cumulative IPC: 0.112913 (Simulation time: 0 hr 32 min 49 sec) 
Heartbeat CPU 0 instructions: 16000000 cycles: 65167431 heartbeat IPC: 0.0635236 cumulative IPC: 0.09996 (Simulation time: 0 hr 36 min 20 sec) 
Heartbeat CPU 0 instructions: 17000001 cycles: 75651098 heartbeat IPC: 0.0953866 cumulative IPC: 0.09928 (Simulation time: 0 hr 39 min 11 sec) 
Heartbeat CPU 0 instructions: 18000000 cycles: 83881988 heartbeat IPC: 0.121493 cumulative IPC: 0.101602 (Simulation time: 0 hr 41 min 36 sec) 
Heartbeat CPU 0 instructions: 19000001 cycles: 93004456 heartbeat IPC: 0.10962 cumulative IPC: 0.102434 (Simulation time: 0 hr 44 min 8 sec) 
Heartbeat CPU 0 instructions: 20000000 cycles: 101773460 heartbeat IPC: 0.114038 cumulative IPC: 0.103487 (Simulation time: 0 hr 46 min 43 sec) 
Heartbeat CPU 0 instructions: 21000000 cycles: 110292699 heartbeat IPC: 0.117381 cumulative IPC: 0.104613 (Simulation time: 0 hr 49 min 10 sec) 
Heartbeat CPU 0 instructions: 22000002 cycles: 118917490 heartbeat IPC: 0.115945 cumulative IPC: 0.105472 (Simulation time: 0 hr 51 min 44 sec) 
Heartbeat CPU 0 instructions: 23000002 cycles: 129052834 heartbeat IPC: 0.0986646 cumulative IPC: 0.104915 (Simulation time: 0 hr 54 min 24 sec) 
Heartbeat CPU 0 instructions: 24000000 cycles: 144269048 heartbeat IPC: 0.0657192 cumulative IPC: 0.100628 (Simulation time: 0 hr 57 min 50 sec) 
Heartbeat CPU 0 instructions: 25000000 cycles: 152413234 heartbeat IPC: 0.122787 cumulative IPC: 0.101854 (Simulation time: 1 hr 0 min 20 sec) 
Heartbeat CPU 0 instructions: 26000000 cycles: 159313301 heartbeat IPC: 0.144926 cumulative IPC: 0.103782 (Simulation time: 1 hr 2 min 41 sec) 
Heartbeat CPU 0 instructions: 27000002 cycles: 166659350 heartbeat IPC: 0.136128 cumulative IPC: 0.105253 (Simulation time: 1 hr 5 min 2 sec) 
Heartbeat CPU 0 instructions: 28000000 cycles: 182077976 heartbeat IPC: 0.0648565 cumulative IPC: 0.101733 (Simulation time: 1 hr 8 min 26 sec) 
Heartbeat CPU 0 instructions: 29000003 cycles: 190896085 heartbeat IPC: 0.113403 cumulative IPC: 0.102287 (Simulation time: 1 hr 11 min 3 sec) 
Heartbeat CPU 0 instructions: 30000003 cycles: 197083444 heartbeat IPC: 0.16162 cumulative IPC: 0.104199 (Simulation time: 1 hr 13 min 19 sec) 
Heartbeat CPU 0 instructions: 31000003 cycles: 205178745 heartbeat IPC: 0.123528 cumulative IPC: 0.104981 (Simulation time: 1 hr 15 min 50 sec) 
Heartbeat CPU 0 instructions: 32000000 cycles: 220530728 heartbeat IPC: 0.065138 cumulative IPC: 0.102142 (Simulation time: 1 hr 19 min 20 sec) 
Heartbeat CPU 0 instructions: 33000000 cycles: 227371948 heartbeat IPC: 0.146173 cumulative IPC: 0.103497 (Simulation time: 1 hr 21 min 41 sec) 
Heartbeat CPU 0 instructions: 34000000 cycles: 234891727 heartbeat IPC: 0.132983 cumulative IPC: 0.104462 (Simulation time: 1 hr 24 min 1 sec) 
Heartbeat CPU 0 instructions: 35000001 cycles: 243489754 heartbeat IPC: 0.116306 cumulative IPC: 0.104889 (Simulation time: 1 hr 26 min 37 sec) 
Heartbeat CPU 0 instructions: 36000000 cycles: 259708898 heartbeat IPC: 0.0616555 cumulative IPC: 0.102135 (Simulation time: 1 hr 30 min 23 sec) 
Heartbeat CPU 0 instructions: 37000001 cycles: 268085878 heartbeat IPC: 0.119375 cumulative IPC: 0.102684 (Simulation time: 1 hr 32 min 48 sec) 
Heartbeat CPU 0 instructions: 38000000 cycles: 275500211 heartbeat IPC: 0.134874 cumulative IPC: 0.103567 (Simulation time: 1 hr 35 min 9 sec) 
Heartbeat CPU 0 instructions: 39000000 cycles: 282134105 heartbeat IPC: 0.150741 cumulative IPC: 0.104697 (Simulation time: 1 hr 37 min 23 sec) 
Heartbeat CPU 0 instructions: 40000000 cycles: 296943809 heartbeat IPC: 0.0675233 cumulative IPC: 0.10281 (Simulation time: 1 hr 40 min 45 sec) 
Heartbeat CPU 0 instructions: 41000003 cycles: 305705864 heartbeat IPC: 0.114129 cumulative IPC: 0.10314 (Simulation time: 1 hr 43 min 20 sec) 
Heartbeat CPU 0 instructions: 42000000 cycles: 312129018 heartbeat IPC: 0.155686 cumulative IPC: 0.104239 (Simulation time: 1 hr 45 min 35 sec) 
Heartbeat CPU 0 instructions: 43000001 cycles: 322542542 heartbeat IPC: 0.0960291 cumulative IPC: 0.10397 (Simulation time: 1 hr 48 min 23 sec) 
Heartbeat CPU 0 instructions: 44000000 cycles: 334951082 heartbeat IPC: 0.0805896 cumulative IPC: 0.10309 (Simulation time: 1 hr 51 min 25 sec) 
Heartbeat CPU 0 instructions: 45000000 cycles: 340588276 heartbeat IPC: 0.177393 cumulative IPC: 0.104339 (Simulation time: 1 hr 53 min 33 sec) 
Heartbeat CPU 0 instructions: 46000002 cycles: 350410114 heartbeat IPC: 0.101814 cumulative IPC: 0.104267 (Simulation time: 1 hr 56 min 22 sec) 
Heartbeat CPU 0 instructions: 47000002 cycles: 363244366 heartbeat IPC: 0.0779165 cumulative IPC: 0.103323 (Simulation time: 1 hr 59 min 31 sec) 
Heartbeat CPU 0 instructions: 48000000 cycles: 369533169 heartbeat IPC: 0.159012 cumulative IPC: 0.104284 (Simulation time: 2 hr 1 min 35 sec) 
Heartbeat CPU 0 instructions: 49000003 cycles: 379101319 heartbeat IPC: 0.104514 cumulative IPC: 0.10429 (Simulation time: 2 hr 4 min 11 sec) 
Heartbeat CPU 0 instructions: 50000000 cycles: 391747527 heartbeat IPC: 0.0790749 cumulative IPC: 0.103465 (Simulation time: 2 hr 7 min 16 sec) 
Heartbeat CPU 0 instructions: 51000000 cycles: 397344019 heartbeat IPC: 0.178683 cumulative IPC: 0.104538 (Simulation time: 2 hr 9 min 20 sec) 
Heartbeat CPU 0 instructions: 52000000 cycles: 406257491 heartbeat IPC: 0.11219 cumulative IPC: 0.104708 (Simulation time: 2 hr 11 min 56 sec) 
Heartbeat CPU 0 instructions: 53000000 cycles: 419727007 heartbeat IPC: 0.0742417 cumulative IPC: 0.103719 (Simulation time: 2 hr 15 min 5 sec) 
Heartbeat CPU 0 instructions: 54000000 cycles: 425570309 heartbeat IPC: 0.171136 cumulative IPC: 0.104656 (Simulation time: 2 hr 17 min 2 sec) 
Heartbeat CPU 0 instructions: 55000000 cycles: 432894764 heartbeat IPC: 0.136529 cumulative IPC: 0.105201 (Simulation time: 2 hr 19 min 13 sec) 
Heartbeat CPU 0 instructions: 56000000 cycles: 447403068 heartbeat IPC: 0.068926 cumulative IPC: 0.104011 (Simulation time: 2 hr 22 min 22 sec) 
Heartbeat CPU 0 instructions: 57000001 cycles: 452999430 heartbeat IPC: 0.178688 cumulative IPC: 0.104944 (Simulation time: 2 hr 24 min 18 sec) 
Heartbeat CPU 0 instructions: 58000001 cycles: 458550983 heartbeat IPC: 0.18013 cumulative IPC: 0.105865 (Simulation time: 2 hr 26 min 3 sec) 
Heartbeat CPU 0 instructions: 59000000 cycles: 474731302 heartbeat IPC: 0.0618034 cumulative IPC: 0.104347 (Simulation time: 2 hr 28 min 25 sec) 
Heartbeat CPU 0 instructions: 60000000 cycles: 481056125 heartbeat IPC: 0.158107 cumulative IPC: 0.105061 (Simulation time: 2 hr 29 min 45 sec) 
Heartbeat CPU 0 instructions: 61000000 cycles: 487504537 heartbeat IPC: 0.155077 cumulative IPC: 0.10573 (Simulation time: 2 hr 31 min 7 sec) 
Heartbeat CPU 0 instructions: 62000001 cycles: 499782132 heartbeat IPC: 0.0814493 cumulative IPC: 0.105127 (Simulation time: 2 hr 32 min 46 sec) 
Heartbeat CPU 0 instructions: 63000001 cycles: 509408146 heartbeat IPC: 0.103885 cumulative IPC: 0.105104 (Simulation time: 2 hr 34 min 15 sec) 
Heartbeat CPU 0 instructions: 64000000 cycles: 514997499 heartbeat IPC: 0.178911 cumulative IPC: 0.105913 (Simulation time: 2 hr 35 min 18 sec) 
Heartbeat CPU 0 instructions: 65000000 cycles: 521944626 heartbeat IPC: 0.143944 cumulative IPC: 0.106424 (Simulation time: 2 hr 36 min 24 sec) 
Heartbeat CPU 0 instructions: 66000000 cycles: 537472714 heartbeat IPC: 0.0643994 cumulative IPC: 0.105198 (Simulation time: 2 hr 38 min 1 sec) 
Heartbeat CPU 0 instructions: 67000002 cycles: 543218026 heartbeat IPC: 0.174055 cumulative IPC: 0.105933 (Simulation time: 2 hr 39 min 4 sec) 
Heartbeat CPU 0 instructions: 68000000 cycles: 548733700 heartbeat IPC: 0.181301 cumulative IPC: 0.106698 (Simulation time: 2 hr 40 min 3 sec) 
Heartbeat CPU 0 instructions: 69000000 cycles: 562140918 heartbeat IPC: 0.0745867 cumulative IPC: 0.105925 (Simulation time: 2 hr 41 min 27 sec) 
Heartbeat CPU 0 instructions: 70000000 cycles: 571176000 heartbeat IPC: 0.11068 cumulative IPC: 0.106001 (Simulation time: 2 hr 42 min 28 sec) 
Heartbeat CPU 0 instructions: 71000002 cycles: 576703498 heartbeat IPC: 0.180914 cumulative IPC: 0.106725 (Simulation time: 2 hr 43 min 19 sec) 
Heartbeat CPU 0 instructions: 72000000 cycles: 584473133 heartbeat IPC: 0.128706 cumulative IPC: 0.10702 (Simulation time: 2 hr 44 min 12 sec) 
Heartbeat CPU 0 instructions: 73000000 cycles: 599071188 heartbeat IPC: 0.0685023 cumulative IPC: 0.106073 (Simulation time: 2 hr 45 min 19 sec) 
Heartbeat CPU 0 instructions: 74000000 cycles: 604801346 heartbeat IPC: 0.174515 cumulative IPC: 0.106728 (Simulation time: 2 hr 46 min 1 sec) 
Heartbeat CPU 0 instructions: 75000001 cycles: 610688766 heartbeat IPC: 0.169854 cumulative IPC: 0.107341 (Simulation time: 2 hr 46 min 39 sec) 
Heartbeat CPU 0 instructions: 76000000 cycles: 623086989 heartbeat IPC: 0.0806566 cumulative IPC: 0.106806 (Simulation time: 2 hr 47 min 30 sec) 
Heartbeat CPU 0 instructions: 77000000 cycles: 633597543 heartbeat IPC: 0.0951425 cumulative IPC: 0.106611 (Simulation time: 2 hr 48 min 15 sec) 
Heartbeat CPU 0 instructions: 78000000 cycles: 640032834 heartbeat IPC: 0.155393 cumulative IPC: 0.107105 (Simulation time: 2 hr 48 min 50 sec) 
Heartbeat CPU 0 instructions: 79000001 cycles: 647067196 heartbeat IPC: 0.142159 cumulative IPC: 0.107489 (Simulation time: 2 hr 49 min 26 sec) 
Heartbeat CPU 0 instructions: 80000000 cycles: 663141907 heartbeat IPC: 0.0622095 cumulative IPC: 0.106383 (Simulation time: 2 hr 50 min 14 sec) 
Heartbeat CPU 0 instructions: 81000001 cycles: 670014717 heartbeat IPC: 0.145501 cumulative IPC: 0.106788 (Simulation time: 2 hr 50 min 44 sec) 
Heartbeat CPU 0 instructions: 82000001 cycles: 676600101 heartbeat IPC: 0.151851 cumulative IPC: 0.10723 (Simulation time: 2 hr 51 min 9 sec) 
Heartbeat CPU 0 instructions: 83000001 cycles: 689458106 heartbeat IPC: 0.0777726 cumulative IPC: 0.106676 (Simulation time: 2 hr 51 min 39 sec) 
Heartbeat CPU 0 instructions: 84000000 cycles: 700761538 heartbeat IPC: 0.0884686 cumulative IPC: 0.10638 (Simulation time: 2 hr 52 min 4 sec) 
Heartbeat CPU 0 instructions: 85000000 cycles: 706574940 heartbeat IPC: 0.172016 cumulative IPC: 0.106924 (Simulation time: 2 hr 52 min 20 sec) 
Heartbeat CPU 0 instructions: 86000000 cycles: 714040159 heartbeat IPC: 0.133955 cumulative IPC: 0.107209 (Simulation time: 2 hr 52 min 37 sec) 
Heartbeat CPU 0 instructions: 87000000 cycles: 729640321 heartbeat IPC: 0.0641019 cumulative IPC: 0.106281 (Simulation time: 2 hr 52 min 55 sec) 
Heartbeat CPU 0 instructions: 88000000 cycles: 736071211 heartbeat IPC: 0.155499 cumulative IPC: 0.106714 (Simulation time: 2 hr 53 min 5 sec) 
Heartbeat CPU 0 instructions: 89000000 cycles: 742941474 heartbeat IPC: 0.145555 cumulative IPC: 0.107075 (Simulation time: 2 hr 53 min 15 sec) 
Heartbeat CPU 0 instructions: 90000002 cycles: 757087861 heartbeat IPC: 0.0706896 cumulative IPC: 0.106391 (Simulation time: 2 hr 53 min 28 sec) 
Heartbeat CPU 0 instructions: 91000000 cycles: 766319144 heartbeat IPC: 0.108327 cumulative IPC: 0.106414 (Simulation time: 2 hr 53 min 40 sec) 
Heartbeat CPU 0 instructions: 92000000 cycles: 772511110 heartbeat IPC: 0.1615 cumulative IPC: 0.106859 (Simulation time: 2 hr 53 min 49 sec) 
Heartbeat CPU 0 instructions: 93000003 cycles: 783685145 heartbeat IPC: 0.0894935 cumulative IPC: 0.10661 (Simulation time: 2 hr 54 min 0 sec) 
Heartbeat CPU 0 instructions: 94000000 cycles: 796050095 heartbeat IPC: 0.0808735 cumulative IPC: 0.106207 (Simulation time: 2 hr 54 min 13 sec) 
Heartbeat CPU 0 instructions: 95000000 cycles: 802466391 heartbeat IPC: 0.155853 cumulative IPC: 0.106607 (Simulation time: 2 hr 54 min 22 sec) 
Heartbeat CPU 0 instructions: 96000000 cycles: 809724096 heartbeat IPC: 0.137785 cumulative IPC: 0.106888 (Simulation time: 2 hr 54 min 31 sec) 
Heartbeat CPU 0 instructions: 97000003 cycles: 825815342 heartbeat IPC: 0.0621458 cumulative IPC: 0.106011 (Simulation time: 2 hr 54 min 44 sec) 
Heartbeat CPU 0 instructions: 98000002 cycles: 832492437 heartbeat IPC: 0.149766 cumulative IPC: 0.106364 (Simulation time: 2 hr 54 min 53 sec) 
Heartbeat CPU 0 instructions: 99000000 cycles: 839103496 heartbeat IPC: 0.151261 cumulative IPC: 0.10672 (Simulation time: 2 hr 55 min 1 sec) 
Heartbeat CPU 0 instructions: 100000000 cycles: 852999269 heartbeat IPC: 0.0719643 cumulative IPC: 0.10615 (Simulation time: 2 hr 55 min 9 sec) 
Heartbeat CPU 0 instructions: 101000000 cycles: 863282836 heartbeat IPC: 0.0972425 cumulative IPC: 0.106043 (Simulation time: 2 hr 55 min 15 sec) 
Heartbeat CPU 0 instructions: 102000000 cycles: 870229383 heartbeat IPC: 0.143956 cumulative IPC: 0.106348 (Simulation time: 2 hr 55 min 20 sec) 
Heartbeat CPU 0 instructions: 103000001 cycles: 876491233 heartbeat IPC: 0.159697 cumulative IPC: 0.106731 (Simulation time: 2 hr 55 min 25 sec) 
Heartbeat CPU 0 instructions: 104000000 cycles: 892543130 heartbeat IPC: 0.0622979 cumulative IPC: 0.105927 (Simulation time: 2 hr 55 min 33 sec) 
Heartbeat CPU 0 instructions: 105000000 cycles: 899952237 heartbeat IPC: 0.134969 cumulative IPC: 0.106168 (Simulation time: 2 hr 55 min 39 sec) 
Heartbeat CPU 0 instructions: 106000000 cycles: 906665537 heartbeat IPC: 0.148958 cumulative IPC: 0.106487 (Simulation time: 2 hr 55 min 44 sec) 
Heartbeat CPU 0 instructions: 107000000 cycles: 916267761 heartbeat IPC: 0.104143 cumulative IPC: 0.106462 (Simulation time: 2 hr 55 min 50 sec) 
Heartbeat CPU 0 instructions: 108000000 cycles: 929590666 heartbeat IPC: 0.0750587 cumulative IPC: 0.106009 (Simulation time: 2 hr 55 min 57 sec) 
Heartbeat CPU 0 instructions: 109000000 cycles: 936523974 heartbeat IPC: 0.144231 cumulative IPC: 0.106294 (Simulation time: 2 hr 56 min 2 sec) 
Heartbeat CPU 0 instructions: 110000000 cycles: 943678995 heartbeat IPC: 0.139762 cumulative IPC: 0.106549 (Simulation time: 2 hr 56 min 8 sec) 
Finished CPU 0 instructions: 100000002 cycles: 938535585 cummulative IPC: 0.106549 (Simulation time: 2 hr 56 min 8 sec) 

ChampSim completed all CPUs

Region of Interest Statistics

CPU 0 cummulative IPC: 0.106549 instructions: 100000002 cycles: 938535585
LLC TOTAL     ACCESS:   21079336  HIT:    9061385  MISS:   12017951
LLC LOAD      ACCESS:    9507239  HIT:    5631049  MISS:    3876190
LLC RFO       ACCESS:     164323  HIT:      62092  MISS:     102231
LLC PREFETCH  ACCESS:    9644797  HIT:    2208061  MISS:    7436736
LLC WRITEBACK ACCESS:    1762977  HIT:    1160183  MISS:     602794
Insertion Distribution: 
	LOAD 498174 0 0 0 0 0 0 0 0 0 0 0 0 0 376750 3346156 
	RFO 1971 0 0 0 0 0 0 0 0 0 0 0 0 0 5311 98569 
	PREF 0 929579 0 0 0 0 0 0 0 0 0 0 0 0 1694837 6018202 
	WRITEBACK 0 0 0 0 0 0 0 0 0 0 0 0 0 0 0 632672 
Total Prefetch Downgrades: 1155061
