
*** ChampSim Multicore Out-of-Order Simulator ***

Warmup Instructions: 10000000
Simulation Instructions: 100000000
Configuration: 2
Number of CPUs: 1
LLC sets: 2048
LLC ways: 16
Off-chip DRAM Channels: 1 Width: 64-bit Data Rate: 1600 MT/s

CPU 0 runs /datasets/cs240c-wi22-a00-public/data/Assignment2-gz/bzip2_259B.trace.gz
CPU 0 L1D next line prefetcher
CPU 0 L2C IP-based stride prefetcher
Initialize SRRIP state
Heartbeat CPU 0 instructions: 1000002 cycles: 428875 heartbeat IPC: 2.33169 cumulative IPC: 2.33169 (Simulation time: 0 hr 1 min 25 sec) 
Heartbeat CPU 0 instructions: 2000003 cycles: 861057 heartbeat IPC: 2.31384 cumulative IPC: 2.32273 (Simulation time: 0 hr 2 min 56 sec) 
Heartbeat CPU 0 instructions: 3000001 cycles: 1286790 heartbeat IPC: 2.34889 cumulative IPC: 2.33138 (Simulation time: 0 hr 4 min 26 sec) 
Heartbeat CPU 0 instructions: 4000000 cycles: 1685062 heartbeat IPC: 2.51084 cumulative IPC: 2.3738 (Simulation time: 0 hr 5 min 44 sec) 
Heartbeat CPU 0 instructions: 5000001 cycles: 2103495 heartbeat IPC: 2.38987 cumulative IPC: 2.377 (Simulation time: 0 hr 7 min 9 sec) 
Heartbeat CPU 0 instructions: 6000001 cycles: 2532858 heartbeat IPC: 2.32903 cumulative IPC: 2.36887 (Simulation time: 0 hr 8 min 34 sec) 
Heartbeat CPU 0 instructions: 7000003 cycles: 2961906 heartbeat IPC: 2.33075 cumulative IPC: 2.36334 (Simulation time: 0 hr 10 min 0 sec) 
Heartbeat CPU 0 instructions: 8000000 cycles: 3391719 heartbeat IPC: 2.32659 cumulative IPC: 2.35869 (Simulation time: 0 hr 11 min 27 sec) 
Heartbeat CPU 0 instructions: 9000000 cycles: 3819845 heartbeat IPC: 2.33576 cumulative IPC: 2.35612 (Simulation time: 0 hr 12 min 52 sec) 
Heartbeat CPU 0 instructions: 10000002 cycles: 4193917 heartbeat IPC: 2.67329 cumulative IPC: 2.38441 (Simulation time: 0 hr 14 min 0 sec) 

Warmup complete CPU 0 instructions: 10000002 cycles: 4193917 (Simulation time: 0 hr 14 min 0 sec) 

Heartbeat CPU 0 instructions: 11000002 cycles: 5034789 heartbeat IPC: 1.18924 cumulative IPC: 1.18924 (Simulation time: 0 hr 15 min 24 sec) 
Heartbeat CPU 0 instructions: 12000000 cycles: 6140435 heartbeat IPC: 0.904447 cumulative IPC: 1.02747 (Simulation time: 0 hr 17 min 7 sec) 
Heartbeat CPU 0 instructions: 13000002 cycles: 7084320 heartbeat IPC: 1.05945 cumulative IPC: 1.03792 (Simulation time: 0 hr 18 min 38 sec) 
Heartbeat CPU 0 instructions: 14000003 cycles: 7999066 heartbeat IPC: 1.0932 cumulative IPC: 1.05121 (Simulation time: 0 hr 20 min 10 sec) 
Heartbeat CPU 0 instructions: 15000002 cycles: 9024146 heartbeat IPC: 0.975533 cumulative IPC: 1.03515 (Simulation time: 0 hr 21 min 44 sec) 
Heartbeat CPU 0 instructions: 16000000 cycles: 10024490 heartbeat IPC: 0.999654 cumulative IPC: 1.02906 (Simulation time: 0 hr 23 min 17 sec) 
Heartbeat CPU 0 instructions: 17000002 cycles: 11145519 heartbeat IPC: 0.892039 cumulative IPC: 1.00696 (Simulation time: 0 hr 24 min 58 sec) 
Heartbeat CPU 0 instructions: 18000001 cycles: 12239319 heartbeat IPC: 0.914243 cumulative IPC: 0.994357 (Simulation time: 0 hr 26 min 28 sec) 
Heartbeat CPU 0 instructions: 19000003 cycles: 13208758 heartbeat IPC: 1.03153 cumulative IPC: 0.998354 (Simulation time: 0 hr 27 min 44 sec) 
Heartbeat CPU 0 instructions: 20000000 cycles: 14218602 heartbeat IPC: 0.990249 cumulative IPC: 0.997537 (Simulation time: 0 hr 29 min 5 sec) 
Heartbeat CPU 0 instructions: 21000001 cycles: 15124740 heartbeat IPC: 1.10359 cumulative IPC: 1.00633 (Simulation time: 0 hr 30 min 20 sec) 
Heartbeat CPU 0 instructions: 22000001 cycles: 16036349 heartbeat IPC: 1.09696 cumulative IPC: 1.01331 (Simulation time: 0 hr 31 min 41 sec) 
Heartbeat CPU 0 instructions: 23000002 cycles: 16940943 heartbeat IPC: 1.10547 cumulative IPC: 1.01985 (Simulation time: 0 hr 32 min 58 sec) 
Heartbeat CPU 0 instructions: 24000000 cycles: 17843349 heartbeat IPC: 1.10815 cumulative IPC: 1.02568 (Simulation time: 0 hr 34 min 17 sec) 
Heartbeat CPU 0 instructions: 25000000 cycles: 18743984 heartbeat IPC: 1.11033 cumulative IPC: 1.03092 (Simulation time: 0 hr 35 min 34 sec) 
Heartbeat CPU 0 instructions: 26000000 cycles: 19671888 heartbeat IPC: 1.0777 cumulative IPC: 1.03373 (Simulation time: 0 hr 36 min 53 sec) 
Heartbeat CPU 0 instructions: 27000003 cycles: 20608697 heartbeat IPC: 1.06746 cumulative IPC: 1.03565 (Simulation time: 0 hr 38 min 13 sec) 
Heartbeat CPU 0 instructions: 28000000 cycles: 21520910 heartbeat IPC: 1.09623 cumulative IPC: 1.03884 (Simulation time: 0 hr 39 min 36 sec) 
Heartbeat CPU 0 instructions: 29000000 cycles: 22426489 heartbeat IPC: 1.10427 cumulative IPC: 1.04209 (Simulation time: 0 hr 40 min 57 sec) 
Heartbeat CPU 0 instructions: 30000000 cycles: 23383939 heartbeat IPC: 1.04444 cumulative IPC: 1.04221 (Simulation time: 0 hr 42 min 14 sec) 
Heartbeat CPU 0 instructions: 31000001 cycles: 24286548 heartbeat IPC: 1.1079 cumulative IPC: 1.04516 (Simulation time: 0 hr 43 min 31 sec) 
Heartbeat CPU 0 instructions: 32000000 cycles: 25178737 heartbeat IPC: 1.12084 cumulative IPC: 1.04838 (Simulation time: 0 hr 44 min 48 sec) 
Heartbeat CPU 0 instructions: 33000002 cycles: 26292098 heartbeat IPC: 0.898183 cumulative IPC: 1.04081 (Simulation time: 0 hr 46 min 10 sec) 
Heartbeat CPU 0 instructions: 34000003 cycles: 27512053 heartbeat IPC: 0.819703 cumulative IPC: 1.02924 (Simulation time: 0 hr 47 min 35 sec) 
Heartbeat CPU 0 instructions: 35000001 cycles: 28565958 heartbeat IPC: 0.94885 cumulative IPC: 1.02577 (Simulation time: 0 hr 48 min 59 sec) 
Heartbeat CPU 0 instructions: 36000000 cycles: 29739542 heartbeat IPC: 0.85209 cumulative IPC: 1.01779 (Simulation time: 0 hr 50 min 17 sec) 
Heartbeat CPU 0 instructions: 37000002 cycles: 30782551 heartbeat IPC: 0.958766 cumulative IPC: 1.01547 (Simulation time: 0 hr 51 min 30 sec) 
Heartbeat CPU 0 instructions: 38000003 cycles: 31897757 heartbeat IPC: 0.896696 cumulative IPC: 1.01069 (Simulation time: 0 hr 52 min 49 sec) 
Heartbeat CPU 0 instructions: 39000001 cycles: 33041733 heartbeat IPC: 0.874142 cumulative IPC: 1.00528 (Simulation time: 0 hr 54 min 4 sec) 
Heartbeat CPU 0 instructions: 40000000 cycles: 34111025 heartbeat IPC: 0.935197 cumulative IPC: 1.00277 (Simulation time: 0 hr 55 min 18 sec) 
Heartbeat CPU 0 instructions: 41000001 cycles: 35300695 heartbeat IPC: 0.84057 cumulative IPC: 0.996567 (Simulation time: 0 hr 56 min 32 sec) 
Heartbeat CPU 0 instructions: 42000000 cycles: 36510506 heartbeat IPC: 0.826575 cumulative IPC: 0.990203 (Simulation time: 0 hr 57 min 44 sec) 
Heartbeat CPU 0 instructions: 43000003 cycles: 37727014 heartbeat IPC: 0.822028 cumulative IPC: 0.984102 (Simulation time: 0 hr 58 min 58 sec) 
Heartbeat CPU 0 instructions: 44000000 cycles: 38940382 heartbeat IPC: 0.82415 cumulative IPC: 0.978517 (Simulation time: 1 hr 0 min 10 sec) 
Heartbeat CPU 0 instructions: 45000000 cycles: 40162121 heartbeat IPC: 0.818505 cumulative IPC: 0.973082 (Simulation time: 1 hr 1 min 31 sec) 
Heartbeat CPU 0 instructions: 46000002 cycles: 41400814 heartbeat IPC: 0.807304 cumulative IPC: 0.967563 (Simulation time: 1 hr 2 min 45 sec) 
Heartbeat CPU 0 instructions: 47000000 cycles: 42632163 heartbeat IPC: 0.812116 cumulative IPC: 0.962583 (Simulation time: 1 hr 3 min 59 sec) 
Heartbeat CPU 0 instructions: 48000000 cycles: 43870340 heartbeat IPC: 0.807639 cumulative IPC: 0.957748 (Simulation time: 1 hr 5 min 11 sec) 
Heartbeat CPU 0 instructions: 49000003 cycles: 45139012 heartbeat IPC: 0.788228 cumulative IPC: 0.952495 (Simulation time: 1 hr 6 min 27 sec) 
Heartbeat CPU 0 instructions: 50000001 cycles: 46178133 heartbeat IPC: 0.96235 cumulative IPC: 0.952739 (Simulation time: 1 hr 7 min 42 sec) 
Heartbeat CPU 0 instructions: 51000002 cycles: 47343186 heartbeat IPC: 0.858331 cumulative IPC: 0.95019 (Simulation time: 1 hr 8 min 55 sec) 
Heartbeat CPU 0 instructions: 52000000 cycles: 48461345 heartbeat IPC: 0.894325 cumulative IPC: 0.948779 (Simulation time: 1 hr 10 min 13 sec) 
Heartbeat CPU 0 instructions: 53000001 cycles: 49657951 heartbeat IPC: 0.835698 cumulative IPC: 0.945803 (Simulation time: 1 hr 11 min 26 sec) 
Heartbeat CPU 0 instructions: 54000000 cycles: 50883463 heartbeat IPC: 0.815985 cumulative IPC: 0.942395 (Simulation time: 1 hr 12 min 45 sec) 
Heartbeat CPU 0 instructions: 55000000 cycles: 52035069 heartbeat IPC: 0.868353 cumulative IPC: 0.940613 (Simulation time: 1 hr 13 min 59 sec) 
Heartbeat CPU 0 instructions: 56000000 cycles: 53259711 heartbeat IPC: 0.816565 cumulative IPC: 0.937517 (Simulation time: 1 hr 15 min 15 sec) 
Heartbeat CPU 0 instructions: 57000000 cycles: 54480759 heartbeat IPC: 0.818969 cumulative IPC: 0.934638 (Simulation time: 1 hr 16 min 30 sec) 
Heartbeat CPU 0 instructions: 58000002 cycles: 55512874 heartbeat IPC: 0.968886 cumulative IPC: 0.935327 (Simulation time: 1 hr 17 min 44 sec) 
Heartbeat CPU 0 instructions: 59000000 cycles: 56613773 heartbeat IPC: 0.908347 cumulative IPC: 0.93476 (Simulation time: 1 hr 18 min 57 sec) 
Heartbeat CPU 0 instructions: 60000000 cycles: 57793936 heartbeat IPC: 0.847341 cumulative IPC: 0.932835 (Simulation time: 1 hr 20 min 11 sec) 
Heartbeat CPU 0 instructions: 61000000 cycles: 58938268 heartbeat IPC: 0.873872 cumulative IPC: 0.931603 (Simulation time: 1 hr 21 min 26 sec) 
Heartbeat CPU 0 instructions: 62000002 cycles: 59782491 heartbeat IPC: 1.18452 cumulative IPC: 0.935444 (Simulation time: 1 hr 22 min 39 sec) 
Heartbeat CPU 0 instructions: 63000003 cycles: 60682398 heartbeat IPC: 1.11123 cumulative IPC: 0.938244 (Simulation time: 1 hr 24 min 1 sec) 
Heartbeat CPU 0 instructions: 64000000 cycles: 61736172 heartbeat IPC: 0.948967 cumulative IPC: 0.938441 (Simulation time: 1 hr 25 min 39 sec) 
Heartbeat CPU 0 instructions: 65000003 cycles: 62715968 heartbeat IPC: 1.02062 cumulative IPC: 0.939817 (Simulation time: 1 hr 27 min 8 sec) 
Heartbeat CPU 0 instructions: 66000003 cycles: 63661659 heartbeat IPC: 1.05743 cumulative IPC: 0.941687 (Simulation time: 1 hr 28 min 38 sec) 
Heartbeat CPU 0 instructions: 67000003 cycles: 64711034 heartbeat IPC: 0.952948 cumulative IPC: 0.941882 (Simulation time: 1 hr 30 min 10 sec) 
Heartbeat CPU 0 instructions: 68000000 cycles: 65781293 heartbeat IPC: 0.93435 cumulative IPC: 0.941751 (Simulation time: 1 hr 31 min 46 sec) 
Heartbeat CPU 0 instructions: 69000003 cycles: 66884553 heartbeat IPC: 0.906407 cumulative IPC: 0.941129 (Simulation time: 1 hr 33 min 19 sec) 
Heartbeat CPU 0 instructions: 70000003 cycles: 68118389 heartbeat IPC: 0.81048 cumulative IPC: 0.938608 (Simulation time: 1 hr 34 min 52 sec) 
Heartbeat CPU 0 instructions: 71000000 cycles: 69414782 heartbeat IPC: 0.771369 cumulative IPC: 0.935283 (Simulation time: 1 hr 36 min 18 sec) 
Heartbeat CPU 0 instructions: 72000000 cycles: 70571181 heartbeat IPC: 0.864753 cumulative IPC: 0.934055 (Simulation time: 1 hr 37 min 43 sec) 
Heartbeat CPU 0 instructions: 73000003 cycles: 71859533 heartbeat IPC: 0.776188 cumulative IPC: 0.931049 (Simulation time: 1 hr 39 min 12 sec) 
Heartbeat CPU 0 instructions: 74000001 cycles: 73090033 heartbeat IPC: 0.812676 cumulative IPC: 0.928935 (Simulation time: 1 hr 40 min 42 sec) 
Heartbeat CPU 0 instructions: 75000000 cycles: 74252434 heartbeat IPC: 0.860287 cumulative IPC: 0.927796 (Simulation time: 1 hr 42 min 7 sec) 
Heartbeat CPU 0 instructions: 76000000 cycles: 75326816 heartbeat IPC: 0.930768 cumulative IPC: 0.927841 (Simulation time: 1 hr 43 min 30 sec) 
Heartbeat CPU 0 instructions: 77000003 cycles: 76285302 heartbeat IPC: 1.04332 cumulative IPC: 0.929376 (Simulation time: 1 hr 44 min 51 sec) 
Heartbeat CPU 0 instructions: 78000000 cycles: 77239390 heartbeat IPC: 1.04812 cumulative IPC: 0.930927 (Simulation time: 1 hr 46 min 10 sec) 
Heartbeat CPU 0 instructions: 79000003 cycles: 78307983 heartbeat IPC: 0.935813 cumulative IPC: 0.930997 (Simulation time: 1 hr 47 min 31 sec) 
Heartbeat CPU 0 instructions: 80000000 cycles: 79527594 heartbeat IPC: 0.819931 cumulative IPC: 0.929199 (Simulation time: 1 hr 48 min 56 sec) 
Heartbeat CPU 0 instructions: 81000001 cycles: 80690243 heartbeat IPC: 0.860106 cumulative IPC: 0.928149 (Simulation time: 1 hr 50 min 28 sec) 
Heartbeat CPU 0 instructions: 82000000 cycles: 81802398 heartbeat IPC: 0.899154 cumulative IPC: 0.927734 (Simulation time: 1 hr 51 min 52 sec) 
Heartbeat CPU 0 instructions: 83000002 cycles: 82851644 heartbeat IPC: 0.953067 cumulative IPC: 0.928072 (Simulation time: 1 hr 53 min 18 sec) 
Heartbeat CPU 0 instructions: 84000000 cycles: 83797150 heartbeat IPC: 1.05763 cumulative IPC: 0.92961 (Simulation time: 1 hr 54 min 37 sec) 
Heartbeat CPU 0 instructions: 85000003 cycles: 84738306 heartbeat IPC: 1.06253 cumulative IPC: 0.931164 (Simulation time: 1 hr 55 min 58 sec) 
Heartbeat CPU 0 instructions: 86000003 cycles: 85786223 heartbeat IPC: 0.954274 cumulative IPC: 0.93146 (Simulation time: 1 hr 57 min 22 sec) 
Heartbeat CPU 0 instructions: 87000002 cycles: 86889322 heartbeat IPC: 0.906536 cumulative IPC: 0.931128 (Simulation time: 1 hr 58 min 41 sec) 
Heartbeat CPU 0 instructions: 88000000 cycles: 88002396 heartbeat IPC: 0.898411 cumulative IPC: 0.930693 (Simulation time: 1 hr 59 min 53 sec) 
Heartbeat CPU 0 instructions: 89000002 cycles: 89009214 heartbeat IPC: 0.99323 cumulative IPC: 0.931436 (Simulation time: 2 hr 1 min 7 sec) 
Heartbeat CPU 0 instructions: 90000001 cycles: 90132562 heartbeat IPC: 0.890195 cumulative IPC: 0.930897 (Simulation time: 2 hr 2 min 16 sec) 
Heartbeat CPU 0 instructions: 91000002 cycles: 91246107 heartbeat IPC: 0.898034 cumulative IPC: 0.930476 (Simulation time: 2 hr 3 min 28 sec) 
Heartbeat CPU 0 instructions: 92000000 cycles: 92285490 heartbeat IPC: 0.962107 cumulative IPC: 0.930849 (Simulation time: 2 hr 4 min 41 sec) 
Heartbeat CPU 0 instructions: 93000000 cycles: 93473218 heartbeat IPC: 0.841944 cumulative IPC: 0.929667 (Simulation time: 2 hr 5 min 53 sec) 
Heartbeat CPU 0 instructions: 94000003 cycles: 94649415 heartbeat IPC: 0.8502 cumulative IPC: 0.928633 (Simulation time: 2 hr 7 min 6 sec) 
Heartbeat CPU 0 instructions: 95000002 cycles: 95834217 heartbeat IPC: 0.844022 cumulative IPC: 0.92754 (Simulation time: 2 hr 8 min 12 sec) 
Heartbeat CPU 0 instructions: 96000000 cycles: 97004403 heartbeat IPC: 0.854563 cumulative IPC: 0.926619 (Simulation time: 2 hr 9 min 26 sec) 
Heartbeat CPU 0 instructions: 97000002 cycles: 98221325 heartbeat IPC: 0.821747 cumulative IPC: 0.925262 (Simulation time: 2 hr 10 min 35 sec) 
Heartbeat CPU 0 instructions: 98000000 cycles: 99454505 heartbeat IPC: 0.81091 cumulative IPC: 0.923782 (Simulation time: 2 hr 11 min 43 sec) 
Heartbeat CPU 0 instructions: 99000000 cycles: 100693848 heartbeat IPC: 0.806879 cumulative IPC: 0.92228 (Simulation time: 2 hr 12 min 52 sec) 
Heartbeat CPU 0 instructions: 100000000 cycles: 101935905 heartbeat IPC: 0.805116 cumulative IPC: 0.920792 (Simulation time: 2 hr 14 min 3 sec) 
Heartbeat CPU 0 instructions: 101000003 cycles: 103084325 heartbeat IPC: 0.870764 cumulative IPC: 0.920211 (Simulation time: 2 hr 15 min 12 sec) 
Heartbeat CPU 0 instructions: 102000000 cycles: 104203640 heartbeat IPC: 0.893401 cumulative IPC: 0.919911 (Simulation time: 2 hr 16 min 17 sec) 
Heartbeat CPU 0 instructions: 103000000 cycles: 105304997 heartbeat IPC: 0.907971 cumulative IPC: 0.91978 (Simulation time: 2 hr 17 min 24 sec) 
Heartbeat CPU 0 instructions: 104000000 cycles: 106458435 heartbeat IPC: 0.866973 cumulative IPC: 0.919185 (Simulation time: 2 hr 18 min 29 sec) 
Heartbeat CPU 0 instructions: 105000002 cycles: 107669815 heartbeat IPC: 0.825506 cumulative IPC: 0.918088 (Simulation time: 2 hr 19 min 41 sec) 
Heartbeat CPU 0 instructions: 106000001 cycles: 108803371 heartbeat IPC: 0.882179 cumulative IPC: 0.917699 (Simulation time: 2 hr 20 min 47 sec) 
Heartbeat CPU 0 instructions: 107000000 cycles: 110006843 heartbeat IPC: 0.830928 cumulative IPC: 0.916712 (Simulation time: 2 hr 21 min 56 sec) 
Heartbeat CPU 0 instructions: 108000000 cycles: 111205181 heartbeat IPC: 0.834489 cumulative IPC: 0.915791 (Simulation time: 2 hr 23 min 2 sec) 
Heartbeat CPU 0 instructions: 109000000 cycles: 112217526 heartbeat IPC: 0.987806 cumulative IPC: 0.916466 (Simulation time: 2 hr 24 min 8 sec) 
Heartbeat CPU 0 instructions: 110000000 cycles: 113378921 heartbeat IPC: 0.861033 cumulative IPC: 0.915877 (Simulation time: 2 hr 25 min 14 sec) 
Finished CPU 0 instructions: 100000002 cycles: 109185006 cummulative IPC: 0.915877 (Simulation time: 2 hr 25 min 14 sec) 

ChampSim completed all CPUs

Region of Interest Statistics

CPU 0 cummulative IPC: 0.915877 instructions: 100000002 cycles: 109185006
LLC TOTAL     ACCESS:    1373535  HIT:    1065119  MISS:     308416
LLC LOAD      ACCESS:     396212  HIT:     349738  MISS:      46474
LLC RFO       ACCESS:     104384  HIT:      44397  MISS:      59987
LLC PREFETCH  ACCESS:     675958  HIT:     514079  MISS:     161879
LLC WRITEBACK ACCESS:     196981  HIT:     156905  MISS:      40076
Insertion Distribution: 
	LOAD 35850 0 0 0 0 0 0 0 0 0 0 0 0 0 9254 1516 
	RFO 11242 0 0 0 0 0 0 0 0 0 0 0 0 0 28484 36215 
	PREF 0 12320 0 0 0 0 0 0 0 0 0 0 0 0 56108 93931 
	WRITEBACK 0 0 0 0 0 0 0 0 0 0 0 0 0 0 0 40080 
Total Prefetch Downgrades: 26584
