
*** ChampSim Multicore Out-of-Order Simulator ***

Warmup Instructions: 10000000
Simulation Instructions: 100000000
Configuration: 2
Number of CPUs: 1
LLC sets: 2048
LLC ways: 16
Off-chip DRAM Channels: 1 Width: 64-bit Data Rate: 1600 MT/s

CPU 0 runs /datasets/cs240c-wi22-a00-public/data/Assignment2-gz/astar_313B.trace.gz
CPU 0 L1D next line prefetcher
CPU 0 L2C IP-based stride prefetcher
Initialize SRRIP state
Heartbeat CPU 0 instructions: 1000001 cycles: 675694 heartbeat IPC: 1.47996 cumulative IPC: 1.47996 (Simulation time: 0 hr 1 min 53 sec) 
Heartbeat CPU 0 instructions: 2000003 cycles: 1262998 heartbeat IPC: 1.7027 cumulative IPC: 1.58354 (Simulation time: 0 hr 3 min 50 sec) 
Heartbeat CPU 0 instructions: 3000003 cycles: 1936984 heartbeat IPC: 1.48371 cumulative IPC: 1.5488 (Simulation time: 0 hr 5 min 45 sec) 
Heartbeat CPU 0 instructions: 4000000 cycles: 2610505 heartbeat IPC: 1.48473 cumulative IPC: 1.53227 (Simulation time: 0 hr 7 min 40 sec) 
Heartbeat CPU 0 instructions: 5000002 cycles: 3284998 heartbeat IPC: 1.4826 cumulative IPC: 1.52207 (Simulation time: 0 hr 9 min 35 sec) 
Heartbeat CPU 0 instructions: 6000001 cycles: 3871158 heartbeat IPC: 1.70602 cumulative IPC: 1.54992 (Simulation time: 0 hr 11 min 29 sec) 
Heartbeat CPU 0 instructions: 7000000 cycles: 4439880 heartbeat IPC: 1.75833 cumulative IPC: 1.57662 (Simulation time: 0 hr 13 min 15 sec) 
Heartbeat CPU 0 instructions: 8000000 cycles: 4991607 heartbeat IPC: 1.81249 cumulative IPC: 1.60269 (Simulation time: 0 hr 15 min 1 sec) 
Heartbeat CPU 0 instructions: 9000001 cycles: 5553223 heartbeat IPC: 1.78058 cumulative IPC: 1.62068 (Simulation time: 0 hr 16 min 48 sec) 
Heartbeat CPU 0 instructions: 10000002 cycles: 6228320 heartbeat IPC: 1.48127 cumulative IPC: 1.60557 (Simulation time: 0 hr 18 min 37 sec) 

Warmup complete CPU 0 instructions: 10000002 cycles: 6228320 (Simulation time: 0 hr 18 min 37 sec) 

Heartbeat CPU 0 instructions: 11000000 cycles: 12535028 heartbeat IPC: 0.158561 cumulative IPC: 0.158561 (Simulation time: 0 hr 20 min 29 sec) 
Heartbeat CPU 0 instructions: 12000000 cycles: 19015413 heartbeat IPC: 0.154312 cumulative IPC: 0.156408 (Simulation time: 0 hr 22 min 18 sec) 
Heartbeat CPU 0 instructions: 13000003 cycles: 27272945 heartbeat IPC: 0.121102 cumulative IPC: 0.142554 (Simulation time: 0 hr 24 min 24 sec) 
Heartbeat CPU 0 instructions: 14000002 cycles: 33502925 heartbeat IPC: 0.160514 cumulative IPC: 0.146657 (Simulation time: 0 hr 26 min 16 sec) 
Heartbeat CPU 0 instructions: 15000000 cycles: 39685525 heartbeat IPC: 0.161744 cumulative IPC: 0.149445 (Simulation time: 0 hr 28 min 9 sec) 
Heartbeat CPU 0 instructions: 16000000 cycles: 45693556 heartbeat IPC: 0.166444 cumulative IPC: 0.152032 (Simulation time: 0 hr 29 min 59 sec) 
Heartbeat CPU 0 instructions: 17000001 cycles: 51846100 heartbeat IPC: 0.162535 cumulative IPC: 0.153449 (Simulation time: 0 hr 31 min 55 sec) 
Heartbeat CPU 0 instructions: 18000000 cycles: 60904555 heartbeat IPC: 0.110394 cumulative IPC: 0.146316 (Simulation time: 0 hr 34 min 16 sec) 
Heartbeat CPU 0 instructions: 19000000 cycles: 67430780 heartbeat IPC: 0.153228 cumulative IPC: 0.147053 (Simulation time: 0 hr 36 min 13 sec) 
Heartbeat CPU 0 instructions: 20000000 cycles: 74459461 heartbeat IPC: 0.142274 cumulative IPC: 0.146561 (Simulation time: 0 hr 38 min 12 sec) 
Heartbeat CPU 0 instructions: 21000003 cycles: 83521847 heartbeat IPC: 0.110347 cumulative IPC: 0.142315 (Simulation time: 0 hr 40 min 29 sec) 
Heartbeat CPU 0 instructions: 22000002 cycles: 90849696 heartbeat IPC: 0.136466 cumulative IPC: 0.141808 (Simulation time: 0 hr 42 min 41 sec) 
Heartbeat CPU 0 instructions: 23000002 cycles: 97098782 heartbeat IPC: 0.160023 cumulative IPC: 0.143061 (Simulation time: 0 hr 44 min 38 sec) 
Heartbeat CPU 0 instructions: 24000000 cycles: 103957185 heartbeat IPC: 0.145806 cumulative IPC: 0.143253 (Simulation time: 0 hr 46 min 37 sec) 
Heartbeat CPU 0 instructions: 25000001 cycles: 111944405 heartbeat IPC: 0.1252 cumulative IPC: 0.141889 (Simulation time: 0 hr 48 min 48 sec) 
Heartbeat CPU 0 instructions: 26000002 cycles: 118588608 heartbeat IPC: 0.150507 cumulative IPC: 0.142399 (Simulation time: 0 hr 50 min 51 sec) 
Heartbeat CPU 0 instructions: 27000003 cycles: 127784418 heartbeat IPC: 0.108745 cumulative IPC: 0.139853 (Simulation time: 0 hr 53 min 8 sec) 
Heartbeat CPU 0 instructions: 28000000 cycles: 133473195 heartbeat IPC: 0.175784 cumulative IPC: 0.14146 (Simulation time: 0 hr 54 min 58 sec) 
Heartbeat CPU 0 instructions: 29000001 cycles: 141956133 heartbeat IPC: 0.117884 cumulative IPC: 0.139986 (Simulation time: 0 hr 57 min 7 sec) 
Heartbeat CPU 0 instructions: 30000001 cycles: 147972110 heartbeat IPC: 0.166224 cumulative IPC: 0.1411 (Simulation time: 0 hr 59 min 4 sec) 
Heartbeat CPU 0 instructions: 31000002 cycles: 154258705 heartbeat IPC: 0.159069 cumulative IPC: 0.141863 (Simulation time: 1 hr 1 min 20 sec) 
Heartbeat CPU 0 instructions: 32000000 cycles: 160445317 heartbeat IPC: 0.161639 cumulative IPC: 0.142656 (Simulation time: 1 hr 3 min 36 sec) 
Heartbeat CPU 0 instructions: 33000000 cycles: 166512768 heartbeat IPC: 0.164814 cumulative IPC: 0.143495 (Simulation time: 1 hr 5 min 50 sec) 
Heartbeat CPU 0 instructions: 34000000 cycles: 175392390 heartbeat IPC: 0.112617 cumulative IPC: 0.141874 (Simulation time: 1 hr 8 min 19 sec) 
Heartbeat CPU 0 instructions: 35000000 cycles: 181531148 heartbeat IPC: 0.162899 cumulative IPC: 0.14261 (Simulation time: 1 hr 10 min 21 sec) 
Heartbeat CPU 0 instructions: 36000000 cycles: 188113886 heartbeat IPC: 0.151912 cumulative IPC: 0.142947 (Simulation time: 1 hr 12 min 24 sec) 
Heartbeat CPU 0 instructions: 37000002 cycles: 197050397 heartbeat IPC: 0.111901 cumulative IPC: 0.141493 (Simulation time: 1 hr 14 min 40 sec) 
Heartbeat CPU 0 instructions: 38000000 cycles: 203016653 heartbeat IPC: 0.167609 cumulative IPC: 0.142285 (Simulation time: 1 hr 16 min 33 sec) 
Heartbeat CPU 0 instructions: 39000001 cycles: 211776171 heartbeat IPC: 0.114162 cumulative IPC: 0.141086 (Simulation time: 1 hr 18 min 44 sec) 
Heartbeat CPU 0 instructions: 40000000 cycles: 220631099 heartbeat IPC: 0.112931 cumulative IPC: 0.139924 (Simulation time: 1 hr 20 min 58 sec) 
Heartbeat CPU 0 instructions: 41000001 cycles: 226866273 heartbeat IPC: 0.160381 cumulative IPC: 0.140502 (Simulation time: 1 hr 22 min 56 sec) 
Heartbeat CPU 0 instructions: 42000003 cycles: 233882343 heartbeat IPC: 0.14253 cumulative IPC: 0.140564 (Simulation time: 1 hr 24 min 54 sec) 
Heartbeat CPU 0 instructions: 43000000 cycles: 243238927 heartbeat IPC: 0.106876 cumulative IPC: 0.139234 (Simulation time: 1 hr 27 min 9 sec) 
Heartbeat CPU 0 instructions: 44000000 cycles: 248921655 heartbeat IPC: 0.175972 cumulative IPC: 0.140094 (Simulation time: 1 hr 29 min 3 sec) 
Heartbeat CPU 0 instructions: 45000000 cycles: 255146262 heartbeat IPC: 0.160653 cumulative IPC: 0.140609 (Simulation time: 1 hr 31 min 0 sec) 
Heartbeat CPU 0 instructions: 46000002 cycles: 261654126 heartbeat IPC: 0.153661 cumulative IPC: 0.140941 (Simulation time: 1 hr 33 min 0 sec) 
Heartbeat CPU 0 instructions: 47000000 cycles: 268352081 heartbeat IPC: 0.149299 cumulative IPC: 0.141155 (Simulation time: 1 hr 34 min 58 sec) 
Heartbeat CPU 0 instructions: 48000000 cycles: 276428124 heartbeat IPC: 0.123823 cumulative IPC: 0.140637 (Simulation time: 1 hr 37 min 6 sec) 
Heartbeat CPU 0 instructions: 49000000 cycles: 281951968 heartbeat IPC: 0.181033 cumulative IPC: 0.141446 (Simulation time: 1 hr 39 min 5 sec) 
Heartbeat CPU 0 instructions: 50000000 cycles: 287797882 heartbeat IPC: 0.17106 cumulative IPC: 0.142061 (Simulation time: 1 hr 41 min 1 sec) 
Heartbeat CPU 0 instructions: 51000000 cycles: 294410796 heartbeat IPC: 0.151219 cumulative IPC: 0.142271 (Simulation time: 1 hr 42 min 56 sec) 
Heartbeat CPU 0 instructions: 52000000 cycles: 302086560 heartbeat IPC: 0.13028 cumulative IPC: 0.14196 (Simulation time: 1 hr 45 min 0 sec) 
Heartbeat CPU 0 instructions: 53000000 cycles: 308467178 heartbeat IPC: 0.156725 cumulative IPC: 0.142272 (Simulation time: 1 hr 46 min 58 sec) 
Heartbeat CPU 0 instructions: 54000001 cycles: 316095124 heartbeat IPC: 0.131097 cumulative IPC: 0.141996 (Simulation time: 1 hr 48 min 57 sec) 
Heartbeat CPU 0 instructions: 55000001 cycles: 324239025 heartbeat IPC: 0.122791 cumulative IPC: 0.141505 (Simulation time: 1 hr 50 min 57 sec) 
Heartbeat CPU 0 instructions: 56000000 cycles: 334070096 heartbeat IPC: 0.101718 cumulative IPC: 0.140312 (Simulation time: 1 hr 53 min 6 sec) 
Heartbeat CPU 0 instructions: 57000000 cycles: 340190047 heartbeat IPC: 0.1634 cumulative IPC: 0.140735 (Simulation time: 1 hr 55 min 0 sec) 
Heartbeat CPU 0 instructions: 58000001 cycles: 346506492 heartbeat IPC: 0.158317 cumulative IPC: 0.141061 (Simulation time: 1 hr 56 min 56 sec) 
Heartbeat CPU 0 instructions: 59000002 cycles: 354806602 heartbeat IPC: 0.12048 cumulative IPC: 0.140571 (Simulation time: 1 hr 58 min 56 sec) 
Heartbeat CPU 0 instructions: 60000000 cycles: 362301167 heartbeat IPC: 0.13343 cumulative IPC: 0.140421 (Simulation time: 2 hr 0 min 58 sec) 
Heartbeat CPU 0 instructions: 61000000 cycles: 368503351 heartbeat IPC: 0.161234 cumulative IPC: 0.140777 (Simulation time: 2 hr 2 min 50 sec) 
Heartbeat CPU 0 instructions: 62000001 cycles: 375125240 heartbeat IPC: 0.151014 cumulative IPC: 0.140961 (Simulation time: 2 hr 4 min 45 sec) 
Heartbeat CPU 0 instructions: 63000000 cycles: 382095993 heartbeat IPC: 0.143456 cumulative IPC: 0.141007 (Simulation time: 2 hr 6 min 38 sec) 
Heartbeat CPU 0 instructions: 64000000 cycles: 391113526 heartbeat IPC: 0.110895 cumulative IPC: 0.140302 (Simulation time: 2 hr 8 min 43 sec) 
Heartbeat CPU 0 instructions: 65000000 cycles: 397995274 heartbeat IPC: 0.145312 cumulative IPC: 0.14039 (Simulation time: 2 hr 10 min 48 sec) 
Heartbeat CPU 0 instructions: 66000001 cycles: 404723815 heartbeat IPC: 0.148621 cumulative IPC: 0.140529 (Simulation time: 2 hr 12 min 34 sec) 
Heartbeat CPU 0 instructions: 67000000 cycles: 412063693 heartbeat IPC: 0.136242 cumulative IPC: 0.140451 (Simulation time: 2 hr 14 min 29 sec) 
Heartbeat CPU 0 instructions: 68000000 cycles: 419561459 heartbeat IPC: 0.133373 cumulative IPC: 0.140323 (Simulation time: 2 hr 16 min 16 sec) 
Heartbeat CPU 0 instructions: 69000000 cycles: 431128007 heartbeat IPC: 0.0864562 cumulative IPC: 0.138856 (Simulation time: 2 hr 18 min 35 sec) 
Heartbeat CPU 0 instructions: 70000000 cycles: 437315388 heartbeat IPC: 0.161619 cumulative IPC: 0.139183 (Simulation time: 2 hr 20 min 18 sec) 
Heartbeat CPU 0 instructions: 71000002 cycles: 443783550 heartbeat IPC: 0.154604 cumulative IPC: 0.139411 (Simulation time: 2 hr 22 min 3 sec) 
Heartbeat CPU 0 instructions: 72000000 cycles: 450964066 heartbeat IPC: 0.139265 cumulative IPC: 0.139409 (Simulation time: 2 hr 23 min 43 sec) 
Heartbeat CPU 0 instructions: 73000003 cycles: 458277448 heartbeat IPC: 0.136736 cumulative IPC: 0.139365 (Simulation time: 2 hr 25 min 20 sec) 
Heartbeat CPU 0 instructions: 74000000 cycles: 467247679 heartbeat IPC: 0.11148 cumulative IPC: 0.138823 (Simulation time: 2 hr 26 min 50 sec) 
Heartbeat CPU 0 instructions: 75000000 cycles: 474067248 heartbeat IPC: 0.146637 cumulative IPC: 0.138937 (Simulation time: 2 hr 28 min 13 sec) 
Heartbeat CPU 0 instructions: 76000000 cycles: 480384881 heartbeat IPC: 0.158287 cumulative IPC: 0.139195 (Simulation time: 2 hr 29 min 24 sec) 
Heartbeat CPU 0 instructions: 77000000 cycles: 486679920 heartbeat IPC: 0.158855 cumulative IPC: 0.139452 (Simulation time: 2 hr 30 min 39 sec) 
Heartbeat CPU 0 instructions: 78000001 cycles: 492820014 heartbeat IPC: 0.162864 cumulative IPC: 0.139748 (Simulation time: 2 hr 31 min 45 sec) 
Heartbeat CPU 0 instructions: 79000000 cycles: 501720052 heartbeat IPC: 0.112359 cumulative IPC: 0.139256 (Simulation time: 2 hr 33 min 1 sec) 
Heartbeat CPU 0 instructions: 80000000 cycles: 507803813 heartbeat IPC: 0.164372 cumulative IPC: 0.13956 (Simulation time: 2 hr 34 min 4 sec) 
Heartbeat CPU 0 instructions: 81000003 cycles: 515143048 heartbeat IPC: 0.136254 cumulative IPC: 0.139513 (Simulation time: 2 hr 35 min 7 sec) 
Heartbeat CPU 0 instructions: 82000001 cycles: 522116972 heartbeat IPC: 0.143391 cumulative IPC: 0.139565 (Simulation time: 2 hr 36 min 5 sec) 
Heartbeat CPU 0 instructions: 83000002 cycles: 527823898 heartbeat IPC: 0.175226 cumulative IPC: 0.139955 (Simulation time: 2 hr 36 min 57 sec) 
Heartbeat CPU 0 instructions: 84000000 cycles: 534130691 heartbeat IPC: 0.158559 cumulative IPC: 0.140177 (Simulation time: 2 hr 37 min 48 sec) 
Heartbeat CPU 0 instructions: 85000000 cycles: 541153887 heartbeat IPC: 0.142385 cumulative IPC: 0.140206 (Simulation time: 2 hr 38 min 42 sec) 
Heartbeat CPU 0 instructions: 86000001 cycles: 549135878 heartbeat IPC: 0.125282 cumulative IPC: 0.139987 (Simulation time: 2 hr 39 min 42 sec) 
Heartbeat CPU 0 instructions: 87000000 cycles: 554680961 heartbeat IPC: 0.18034 cumulative IPC: 0.140395 (Simulation time: 2 hr 40 min 30 sec) 
Heartbeat CPU 0 instructions: 88000000 cycles: 560691455 heartbeat IPC: 0.166376 cumulative IPC: 0.140677 (Simulation time: 2 hr 41 min 19 sec) 
Heartbeat CPU 0 instructions: 89000002 cycles: 566984655 heartbeat IPC: 0.158902 cumulative IPC: 0.140881 (Simulation time: 2 hr 42 min 7 sec) 
Heartbeat CPU 0 instructions: 90000002 cycles: 573063662 heartbeat IPC: 0.164501 cumulative IPC: 0.141134 (Simulation time: 2 hr 42 min 48 sec) 
Heartbeat CPU 0 instructions: 91000001 cycles: 581878137 heartbeat IPC: 0.11345 cumulative IPC: 0.140711 (Simulation time: 2 hr 43 min 39 sec) 
Heartbeat CPU 0 instructions: 92000000 cycles: 588333789 heartbeat IPC: 0.154903 cumulative IPC: 0.140868 (Simulation time: 2 hr 44 min 21 sec) 
Heartbeat CPU 0 instructions: 93000003 cycles: 595539131 heartbeat IPC: 0.138786 cumulative IPC: 0.140842 (Simulation time: 2 hr 45 min 3 sec) 
Heartbeat CPU 0 instructions: 94000000 cycles: 603262542 heartbeat IPC: 0.129476 cumulative IPC: 0.140695 (Simulation time: 2 hr 45 min 41 sec) 
Heartbeat CPU 0 instructions: 95000000 cycles: 609900159 heartbeat IPC: 0.150656 cumulative IPC: 0.140805 (Simulation time: 2 hr 46 min 16 sec) 
Heartbeat CPU 0 instructions: 96000000 cycles: 618965536 heartbeat IPC: 0.11031 cumulative IPC: 0.140354 (Simulation time: 2 hr 46 min 55 sec) 
Heartbeat CPU 0 instructions: 97000000 cycles: 625533126 heartbeat IPC: 0.152263 cumulative IPC: 0.14048 (Simulation time: 2 hr 47 min 27 sec) 
Heartbeat CPU 0 instructions: 98000003 cycles: 633032315 heartbeat IPC: 0.133348 cumulative IPC: 0.140395 (Simulation time: 2 hr 48 min 0 sec) 
Heartbeat CPU 0 instructions: 99000001 cycles: 641011423 heartbeat IPC: 0.125327 cumulative IPC: 0.140205 (Simulation time: 2 hr 48 min 32 sec) 
Heartbeat CPU 0 instructions: 100000000 cycles: 648665349 heartbeat IPC: 0.130652 cumulative IPC: 0.140092 (Simulation time: 2 hr 49 min 2 sec) 
Heartbeat CPU 0 instructions: 101000000 cycles: 657549757 heartbeat IPC: 0.112557 cumulative IPC: 0.139716 (Simulation time: 2 hr 49 min 34 sec) 
Heartbeat CPU 0 instructions: 102000001 cycles: 663251967 heartbeat IPC: 0.175371 cumulative IPC: 0.140025 (Simulation time: 2 hr 50 min 0 sec) 
Heartbeat CPU 0 instructions: 103000000 cycles: 669609365 heartbeat IPC: 0.157297 cumulative IPC: 0.140191 (Simulation time: 2 hr 50 min 24 sec) 
Heartbeat CPU 0 instructions: 104000000 cycles: 675959155 heartbeat IPC: 0.157486 cumulative IPC: 0.140355 (Simulation time: 2 hr 50 min 48 sec) 
Heartbeat CPU 0 instructions: 105000000 cycles: 682046518 heartbeat IPC: 0.164275 cumulative IPC: 0.14057 (Simulation time: 2 hr 51 min 8 sec) 
Heartbeat CPU 0 instructions: 106000000 cycles: 691107398 heartbeat IPC: 0.110365 cumulative IPC: 0.140171 (Simulation time: 2 hr 51 min 32 sec) 
Heartbeat CPU 0 instructions: 107000002 cycles: 697776158 heartbeat IPC: 0.149953 cumulative IPC: 0.140265 (Simulation time: 2 hr 51 min 49 sec) 
Heartbeat CPU 0 instructions: 108000000 cycles: 707103021 heartbeat IPC: 0.107217 cumulative IPC: 0.139825 (Simulation time: 2 hr 52 min 6 sec) 
Heartbeat CPU 0 instructions: 109000003 cycles: 713745068 heartbeat IPC: 0.150556 cumulative IPC: 0.139926 (Simulation time: 2 hr 52 min 21 sec) 
Heartbeat CPU 0 instructions: 110000003 cycles: 720237740 heartbeat IPC: 0.15402 cumulative IPC: 0.140054 (Simulation time: 2 hr 52 min 35 sec) 
Finished CPU 0 instructions: 100000001 cycles: 714009420 cummulative IPC: 0.140054 (Simulation time: 2 hr 52 min 35 sec) 

ChampSim completed all CPUs

Region of Interest Statistics

CPU 0 cummulative IPC: 0.140054 instructions: 100000001 cycles: 714009420
LLC TOTAL     ACCESS:    8750197  HIT:    2790711  MISS:    5959486
LLC LOAD      ACCESS:    1885946  HIT:     531790  MISS:    1354156
LLC RFO       ACCESS:    1828628  HIT:     554745  MISS:    1273883
LLC PREFETCH  ACCESS:    2272817  HIT:     145955  MISS:    2126862
LLC WRITEBACK ACCESS:    2762806  HIT:    1558221  MISS:    1204585
Insertion Distribution: 
	LOAD 410522 0 0 0 0 0 0 0 0 0 0 0 0 0 239790 810786 
	RFO 153334 0 0 0 0 0 0 0 0 0 0 0 0 0 70698 1313648 
	PREF 0 35624 0 0 0 0 0 0 0 0 0 0 0 0 178179 2133277 
	WRITEBACK 0 0 0 0 0 0 0 0 0 0 0 0 0 0 0 1461561 
Total Prefetch Downgrades: 66316
