
*** ChampSim Multicore Out-of-Order Simulator ***

Warmup Instructions: 10000000
Simulation Instructions: 100000000
Configuration: 2
Number of CPUs: 1
LLC sets: 2048
LLC ways: 16
Off-chip DRAM Channels: 1 Width: 64-bit Data Rate: 1600 MT/s

CPU 0 runs /datasets/cs240c-wi22-a00-public/data/Assignment2-gz/cactusADM_734B.trace.gz
CPU 0 L1D next line prefetcher
CPU 0 L2C IP-based stride prefetcher
Initialize SRRIP state
Heartbeat CPU 0 instructions: 1000003 cycles: 592726 heartbeat IPC: 1.68713 cumulative IPC: 1.68713 (Simulation time: 0 hr 1 min 41 sec) 
Heartbeat CPU 0 instructions: 2000001 cycles: 1185927 heartbeat IPC: 1.68577 cumulative IPC: 1.68645 (Simulation time: 0 hr 3 min 29 sec) 
Heartbeat CPU 0 instructions: 3000003 cycles: 1778979 heartbeat IPC: 1.6862 cumulative IPC: 1.68636 (Simulation time: 0 hr 5 min 15 sec) 
Heartbeat CPU 0 instructions: 4000000 cycles: 2371929 heartbeat IPC: 1.68648 cumulative IPC: 1.68639 (Simulation time: 0 hr 7 min 2 sec) 
Heartbeat CPU 0 instructions: 5000000 cycles: 2965279 heartbeat IPC: 1.68535 cumulative IPC: 1.68618 (Simulation time: 0 hr 8 min 49 sec) 
Heartbeat CPU 0 instructions: 6000002 cycles: 3558551 heartbeat IPC: 1.68557 cumulative IPC: 1.68608 (Simulation time: 0 hr 10 min 36 sec) 
Heartbeat CPU 0 instructions: 7000000 cycles: 4151394 heartbeat IPC: 1.68678 cumulative IPC: 1.68618 (Simulation time: 0 hr 12 min 20 sec) 
Heartbeat CPU 0 instructions: 8000000 cycles: 4744343 heartbeat IPC: 1.68649 cumulative IPC: 1.68622 (Simulation time: 0 hr 14 min 2 sec) 
Heartbeat CPU 0 instructions: 9000001 cycles: 5337493 heartbeat IPC: 1.68592 cumulative IPC: 1.68619 (Simulation time: 0 hr 15 min 48 sec) 
Heartbeat CPU 0 instructions: 10000003 cycles: 5958967 heartbeat IPC: 1.60908 cumulative IPC: 1.67814 (Simulation time: 0 hr 17 min 36 sec) 

Warmup complete CPU 0 instructions: 10000003 cycles: 5958967 (Simulation time: 0 hr 17 min 36 sec) 

Heartbeat CPU 0 instructions: 11000002 cycles: 12570569 heartbeat IPC: 0.151249 cumulative IPC: 0.151249 (Simulation time: 0 hr 19 min 43 sec) 
Heartbeat CPU 0 instructions: 12000000 cycles: 14313515 heartbeat IPC: 0.57374 cumulative IPC: 0.23939 (Simulation time: 0 hr 21 min 31 sec) 
Heartbeat CPU 0 instructions: 13000002 cycles: 16002174 heartbeat IPC: 0.592187 cumulative IPC: 0.298709 (Simulation time: 0 hr 23 min 15 sec) 
Heartbeat CPU 0 instructions: 14000000 cycles: 17688683 heartbeat IPC: 0.59294 cumulative IPC: 0.341014 (Simulation time: 0 hr 25 min 5 sec) 
Heartbeat CPU 0 instructions: 15000003 cycles: 19428364 heartbeat IPC: 0.57482 cumulative IPC: 0.371212 (Simulation time: 0 hr 26 min 52 sec) 
Heartbeat CPU 0 instructions: 16000000 cycles: 21170879 heartbeat IPC: 0.573881 cumulative IPC: 0.394428 (Simulation time: 0 hr 28 min 42 sec) 
Heartbeat CPU 0 instructions: 17000002 cycles: 22904850 heartbeat IPC: 0.576712 cumulative IPC: 0.41308 (Simulation time: 0 hr 30 min 28 sec) 
Heartbeat CPU 0 instructions: 18000001 cycles: 24562901 heartbeat IPC: 0.603117 cumulative IPC: 0.430016 (Simulation time: 0 hr 32 min 17 sec) 
Heartbeat CPU 0 instructions: 19000000 cycles: 26280568 heartbeat IPC: 0.582184 cumulative IPC: 0.442878 (Simulation time: 0 hr 34 min 6 sec) 
Heartbeat CPU 0 instructions: 20000000 cycles: 28023620 heartbeat IPC: 0.573706 cumulative IPC: 0.453213 (Simulation time: 0 hr 35 min 52 sec) 
Heartbeat CPU 0 instructions: 21000002 cycles: 29766999 heartbeat IPC: 0.5736 cumulative IPC: 0.462029 (Simulation time: 0 hr 37 min 41 sec) 
Heartbeat CPU 0 instructions: 22000000 cycles: 31476660 heartbeat IPC: 0.58491 cumulative IPC: 0.470262 (Simulation time: 0 hr 39 min 34 sec) 
Heartbeat CPU 0 instructions: 23000001 cycles: 33140844 heartbeat IPC: 0.600896 cumulative IPC: 0.47826 (Simulation time: 0 hr 41 min 29 sec) 
Heartbeat CPU 0 instructions: 24000000 cycles: 40710737 heartbeat IPC: 0.132102 cumulative IPC: 0.402857 (Simulation time: 0 hr 43 min 44 sec) 
Heartbeat CPU 0 instructions: 25000000 cycles: 42449881 heartbeat IPC: 0.574996 cumulative IPC: 0.411061 (Simulation time: 0 hr 45 min 39 sec) 
Heartbeat CPU 0 instructions: 26000002 cycles: 44182096 heartbeat IPC: 0.577297 cumulative IPC: 0.418595 (Simulation time: 0 hr 47 min 25 sec) 
Heartbeat CPU 0 instructions: 27000002 cycles: 45841991 heartbeat IPC: 0.602448 cumulative IPC: 0.426246 (Simulation time: 0 hr 49 min 13 sec) 
Heartbeat CPU 0 instructions: 28000000 cycles: 47564854 heartbeat IPC: 0.580428 cumulative IPC: 0.432631 (Simulation time: 0 hr 51 min 7 sec) 
Heartbeat CPU 0 instructions: 29000001 cycles: 49321000 heartbeat IPC: 0.569429 cumulative IPC: 0.438171 (Simulation time: 0 hr 52 min 57 sec) 
Heartbeat CPU 0 instructions: 30000001 cycles: 51059820 heartbeat IPC: 0.575103 cumulative IPC: 0.443451 (Simulation time: 0 hr 54 min 48 sec) 
Heartbeat CPU 0 instructions: 31000003 cycles: 52769971 heartbeat IPC: 0.584745 cumulative IPC: 0.448612 (Simulation time: 0 hr 56 min 37 sec) 
Heartbeat CPU 0 instructions: 32000000 cycles: 54426055 heartbeat IPC: 0.603832 cumulative IPC: 0.453916 (Simulation time: 0 hr 58 min 21 sec) 
Heartbeat CPU 0 instructions: 33000000 cycles: 56158113 heartbeat IPC: 0.577348 cumulative IPC: 0.458175 (Simulation time: 1 hr 0 min 11 sec) 
Heartbeat CPU 0 instructions: 34000001 cycles: 57898695 heartbeat IPC: 0.574521 cumulative IPC: 0.462074 (Simulation time: 1 hr 2 min 6 sec) 
Heartbeat CPU 0 instructions: 35000000 cycles: 59634084 heartbeat IPC: 0.576239 cumulative IPC: 0.465765 (Simulation time: 1 hr 3 min 55 sec) 
Heartbeat CPU 0 instructions: 36000000 cycles: 61314035 heartbeat IPC: 0.595255 cumulative IPC: 0.469695 (Simulation time: 1 hr 5 min 47 sec) 
Heartbeat CPU 0 instructions: 37000003 cycles: 68836739 heartbeat IPC: 0.132931 cumulative IPC: 0.429405 (Simulation time: 1 hr 7 min 54 sec) 
Heartbeat CPU 0 instructions: 38000001 cycles: 70572521 heartbeat IPC: 0.576108 cumulative IPC: 0.433346 (Simulation time: 1 hr 9 min 48 sec) 
Heartbeat CPU 0 instructions: 39000001 cycles: 72308686 heartbeat IPC: 0.575982 cumulative IPC: 0.437078 (Simulation time: 1 hr 11 min 40 sec) 
Heartbeat CPU 0 instructions: 40000000 cycles: 74022800 heartbeat IPC: 0.583391 cumulative IPC: 0.440763 (Simulation time: 1 hr 13 min 35 sec) 
Heartbeat CPU 0 instructions: 41000001 cycles: 75673545 heartbeat IPC: 0.605788 cumulative IPC: 0.44467 (Simulation time: 1 hr 15 min 23 sec) 
Heartbeat CPU 0 instructions: 42000002 cycles: 77404781 heartbeat IPC: 0.577623 cumulative IPC: 0.447892 (Simulation time: 1 hr 17 min 12 sec) 
Heartbeat CPU 0 instructions: 43000000 cycles: 79141538 heartbeat IPC: 0.575785 cumulative IPC: 0.450927 (Simulation time: 1 hr 19 min 5 sec) 
Heartbeat CPU 0 instructions: 44000000 cycles: 80878491 heartbeat IPC: 0.575721 cumulative IPC: 0.45382 (Simulation time: 1 hr 20 min 53 sec) 
Heartbeat CPU 0 instructions: 45000000 cycles: 82560093 heartbeat IPC: 0.594671 cumulative IPC: 0.456912 (Simulation time: 1 hr 22 min 40 sec) 
Heartbeat CPU 0 instructions: 46000003 cycles: 84239808 heartbeat IPC: 0.595341 cumulative IPC: 0.459883 (Simulation time: 1 hr 24 min 30 sec) 
Heartbeat CPU 0 instructions: 47000001 cycles: 85974596 heartbeat IPC: 0.576438 cumulative IPC: 0.46241 (Simulation time: 1 hr 26 min 25 sec) 
Heartbeat CPU 0 instructions: 48000000 cycles: 87712683 heartbeat IPC: 0.575345 cumulative IPC: 0.464811 (Simulation time: 1 hr 28 min 8 sec) 
Heartbeat CPU 0 instructions: 49000000 cycles: 89445668 heartbeat IPC: 0.577039 cumulative IPC: 0.46714 (Simulation time: 1 hr 29 min 56 sec) 
Heartbeat CPU 0 instructions: 50000001 cycles: 96886674 heartbeat IPC: 0.134391 cumulative IPC: 0.43991 (Simulation time: 1 hr 32 min 9 sec) 
Heartbeat CPU 0 instructions: 51000000 cycles: 98612711 heartbeat IPC: 0.579361 cumulative IPC: 0.442508 (Simulation time: 1 hr 33 min 59 sec) 
Heartbeat CPU 0 instructions: 52000000 cycles: 100348007 heartbeat IPC: 0.576271 cumulative IPC: 0.444967 (Simulation time: 1 hr 35 min 45 sec) 
Heartbeat CPU 0 instructions: 53000003 cycles: 102084324 heartbeat IPC: 0.575933 cumulative IPC: 0.447333 (Simulation time: 1 hr 37 min 32 sec) 
Heartbeat CPU 0 instructions: 54000000 cycles: 103769712 heartbeat IPC: 0.593333 cumulative IPC: 0.449848 (Simulation time: 1 hr 39 min 25 sec) 
Heartbeat CPU 0 instructions: 55000001 cycles: 105442709 heartbeat IPC: 0.59773 cumulative IPC: 0.452335 (Simulation time: 1 hr 41 min 15 sec) 
Heartbeat CPU 0 instructions: 56000000 cycles: 107191410 heartbeat IPC: 0.571853 cumulative IPC: 0.4544 (Simulation time: 1 hr 43 min 3 sec) 
Heartbeat CPU 0 instructions: 57000000 cycles: 108937968 heartbeat IPC: 0.572555 cumulative IPC: 0.456404 (Simulation time: 1 hr 44 min 52 sec) 
Heartbeat CPU 0 instructions: 58000001 cycles: 110669216 heartbeat IPC: 0.577619 cumulative IPC: 0.458408 (Simulation time: 1 hr 46 min 41 sec) 
Heartbeat CPU 0 instructions: 59000000 cycles: 112325239 heartbeat IPC: 0.603856 cumulative IPC: 0.460672 (Simulation time: 1 hr 48 min 28 sec) 
Heartbeat CPU 0 instructions: 60000000 cycles: 114029287 heartbeat IPC: 0.586838 cumulative IPC: 0.462662 (Simulation time: 1 hr 50 min 14 sec) 
Heartbeat CPU 0 instructions: 61000002 cycles: 115766428 heartbeat IPC: 0.57566 cumulative IPC: 0.464449 (Simulation time: 1 hr 52 min 2 sec) 
Heartbeat CPU 0 instructions: 62000002 cycles: 117503998 heartbeat IPC: 0.575516 cumulative IPC: 0.466179 (Simulation time: 1 hr 53 min 56 sec) 
Heartbeat CPU 0 instructions: 63000002 cycles: 124862179 heartbeat IPC: 0.135903 cumulative IPC: 0.445741 (Simulation time: 1 hr 56 min 10 sec) 
Heartbeat CPU 0 instructions: 64000000 cycles: 126809090 heartbeat IPC: 0.513633 cumulative IPC: 0.446834 (Simulation time: 1 hr 58 min 2 sec) 
Heartbeat CPU 0 instructions: 65000003 cycles: 128543817 heartbeat IPC: 0.576461 cumulative IPC: 0.448669 (Simulation time: 1 hr 59 min 51 sec) 
Heartbeat CPU 0 instructions: 66000001 cycles: 130282117 heartbeat IPC: 0.575274 cumulative IPC: 0.450439 (Simulation time: 2 hr 1 min 40 sec) 
Heartbeat CPU 0 instructions: 67000000 cycles: 132016394 heartbeat IPC: 0.576609 cumulative IPC: 0.452175 (Simulation time: 2 hr 3 min 27 sec) 
Heartbeat CPU 0 instructions: 68000000 cycles: 133677301 heartbeat IPC: 0.602081 cumulative IPC: 0.454124 (Simulation time: 2 hr 5 min 17 sec) 
Heartbeat CPU 0 instructions: 69000000 cycles: 135376280 heartbeat IPC: 0.588589 cumulative IPC: 0.45589 (Simulation time: 2 hr 7 min 6 sec) 
Heartbeat CPU 0 instructions: 70000001 cycles: 137114185 heartbeat IPC: 0.575406 cumulative IPC: 0.457473 (Simulation time: 2 hr 8 min 54 sec) 
Heartbeat CPU 0 instructions: 71000001 cycles: 138853379 heartbeat IPC: 0.574979 cumulative IPC: 0.459011 (Simulation time: 2 hr 10 min 42 sec) 
Heartbeat CPU 0 instructions: 72000000 cycles: 140571788 heartbeat IPC: 0.581933 cumulative IPC: 0.46058 (Simulation time: 2 hr 12 min 28 sec) 
Heartbeat CPU 0 instructions: 73000003 cycles: 142219194 heartbeat IPC: 0.607017 cumulative IPC: 0.462351 (Simulation time: 2 hr 14 min 13 sec) 
Heartbeat CPU 0 instructions: 74000002 cycles: 143949127 heartbeat IPC: 0.578057 cumulative IPC: 0.463801 (Simulation time: 2 hr 15 min 56 sec) 
Heartbeat CPU 0 instructions: 75000002 cycles: 145688013 heartbeat IPC: 0.575081 cumulative IPC: 0.465186 (Simulation time: 2 hr 17 min 37 sec) 
Heartbeat CPU 0 instructions: 76000000 cycles: 151856298 heartbeat IPC: 0.162119 cumulative IPC: 0.452373 (Simulation time: 2 hr 19 min 34 sec) 
Heartbeat CPU 0 instructions: 77000000 cycles: 155037852 heartbeat IPC: 0.314312 cumulative IPC: 0.449426 (Simulation time: 2 hr 21 min 19 sec) 
Heartbeat CPU 0 instructions: 78000002 cycles: 156732619 heartbeat IPC: 0.590053 cumulative IPC: 0.451007 (Simulation time: 2 hr 23 min 1 sec) 
Heartbeat CPU 0 instructions: 79000002 cycles: 158471735 heartbeat IPC: 0.575005 cumulative IPC: 0.452421 (Simulation time: 2 hr 24 min 49 sec) 
Heartbeat CPU 0 instructions: 80000000 cycles: 160207241 heartbeat IPC: 0.5762 cumulative IPC: 0.453814 (Simulation time: 2 hr 26 min 23 sec) 
Heartbeat CPU 0 instructions: 81000000 cycles: 161932208 heartbeat IPC: 0.579721 cumulative IPC: 0.455206 (Simulation time: 2 hr 27 min 43 sec) 
Heartbeat CPU 0 instructions: 82000003 cycles: 163575222 heartbeat IPC: 0.608639 cumulative IPC: 0.456806 (Simulation time: 2 hr 28 min 59 sec) 
Heartbeat CPU 0 instructions: 83000003 cycles: 165303194 heartbeat IPC: 0.578713 cumulative IPC: 0.458128 (Simulation time: 2 hr 30 min 12 sec) 
Heartbeat CPU 0 instructions: 84000000 cycles: 167039731 heartbeat IPC: 0.575857 cumulative IPC: 0.459397 (Simulation time: 2 hr 31 min 20 sec) 
Heartbeat CPU 0 instructions: 85000003 cycles: 168776956 heartbeat IPC: 0.575632 cumulative IPC: 0.460637 (Simulation time: 2 hr 32 min 27 sec) 
Heartbeat CPU 0 instructions: 86000000 cycles: 170469539 heartbeat IPC: 0.590811 cumulative IPC: 0.461976 (Simulation time: 2 hr 33 min 24 sec) 
Heartbeat CPU 0 instructions: 87000000 cycles: 172142682 heartbeat IPC: 0.597678 cumulative IPC: 0.463343 (Simulation time: 2 hr 34 min 20 sec) 
Heartbeat CPU 0 instructions: 88000000 cycles: 173908097 heartbeat IPC: 0.566439 cumulative IPC: 0.464426 (Simulation time: 2 hr 35 min 17 sec) 
Heartbeat CPU 0 instructions: 89000002 cycles: 179010012 heartbeat IPC: 0.196005 cumulative IPC: 0.456513 (Simulation time: 2 hr 36 min 20 sec) 
Heartbeat CPU 0 instructions: 90000002 cycles: 183265459 heartbeat IPC: 0.234993 cumulative IPC: 0.451196 (Simulation time: 2 hr 37 min 20 sec) 
Heartbeat CPU 0 instructions: 91000003 cycles: 184911576 heartbeat IPC: 0.607491 cumulative IPC: 0.452634 (Simulation time: 2 hr 38 min 9 sec) 
Heartbeat CPU 0 instructions: 92000000 cycles: 186638487 heartbeat IPC: 0.579067 cumulative IPC: 0.453842 (Simulation time: 2 hr 39 min 1 sec) 
Heartbeat CPU 0 instructions: 93000000 cycles: 188376064 heartbeat IPC: 0.575514 cumulative IPC: 0.455001 (Simulation time: 2 hr 39 min 59 sec) 
Heartbeat CPU 0 instructions: 94000003 cycles: 190114949 heartbeat IPC: 0.575083 cumulative IPC: 0.456135 (Simulation time: 2 hr 40 min 50 sec) 
Heartbeat CPU 0 instructions: 95000000 cycles: 191811459 heartbeat IPC: 0.589444 cumulative IPC: 0.457352 (Simulation time: 2 hr 41 min 40 sec) 
Heartbeat CPU 0 instructions: 96000000 cycles: 193481827 heartbeat IPC: 0.59867 cumulative IPC: 0.458611 (Simulation time: 2 hr 42 min 24 sec) 
Heartbeat CPU 0 instructions: 97000001 cycles: 195216062 heartbeat IPC: 0.576624 cumulative IPC: 0.459692 (Simulation time: 2 hr 43 min 14 sec) 
Heartbeat CPU 0 instructions: 98000000 cycles: 196954277 heartbeat IPC: 0.575302 cumulative IPC: 0.460744 (Simulation time: 2 hr 44 min 0 sec) 
Heartbeat CPU 0 instructions: 99000001 cycles: 198691246 heartbeat IPC: 0.575716 cumulative IPC: 0.46178 (Simulation time: 2 hr 44 min 42 sec) 
Heartbeat CPU 0 instructions: 100000000 cycles: 200359172 heartbeat IPC: 0.599546 cumulative IPC: 0.462962 (Simulation time: 2 hr 45 min 21 sec) 
Heartbeat CPU 0 instructions: 101000000 cycles: 202058984 heartbeat IPC: 0.5883 cumulative IPC: 0.464049 (Simulation time: 2 hr 45 min 59 sec) 
Heartbeat CPU 0 instructions: 102000000 cycles: 206073471 heartbeat IPC: 0.249098 cumulative IPC: 0.459737 (Simulation time: 2 hr 46 min 35 sec) 
Heartbeat CPU 0 instructions: 103000000 cycles: 211419173 heartbeat IPC: 0.187066 cumulative IPC: 0.452642 (Simulation time: 2 hr 47 min 11 sec) 
Heartbeat CPU 0 instructions: 104000000 cycles: 213121565 heartbeat IPC: 0.587409 cumulative IPC: 0.45375 (Simulation time: 2 hr 47 min 41 sec) 
Heartbeat CPU 0 instructions: 105000000 cycles: 214784752 heartbeat IPC: 0.601255 cumulative IPC: 0.454925 (Simulation time: 2 hr 48 min 11 sec) 
Heartbeat CPU 0 instructions: 106000002 cycles: 216517410 heartbeat IPC: 0.577149 cumulative IPC: 0.45593 (Simulation time: 2 hr 48 min 41 sec) 
Heartbeat CPU 0 instructions: 107000001 cycles: 218256680 heartbeat IPC: 0.574953 cumulative IPC: 0.456906 (Simulation time: 2 hr 49 min 11 sec) 
Heartbeat CPU 0 instructions: 108000000 cycles: 219991152 heartbeat IPC: 0.576544 cumulative IPC: 0.457875 (Simulation time: 2 hr 49 min 38 sec) 
Heartbeat CPU 0 instructions: 109000001 cycles: 221663389 heartbeat IPC: 0.598002 cumulative IPC: 0.458961 (Simulation time: 2 hr 50 min 4 sec) 
Heartbeat CPU 0 instructions: 110000003 cycles: 223356074 heartbeat IPC: 0.590779 cumulative IPC: 0.459988 (Simulation time: 2 hr 50 min 28 sec) 
Finished CPU 0 instructions: 100000000 cycles: 217397107 cummulative IPC: 0.459988 (Simulation time: 2 hr 50 min 28 sec) 

ChampSim completed all CPUs

Region of Interest Statistics

CPU 0 cummulative IPC: 0.459988 instructions: 100000000 cycles: 217397107
LLC TOTAL     ACCESS:    1164076  HIT:     329911  MISS:     834165
LLC LOAD      ACCESS:      21693  HIT:       2909  MISS:      18784
LLC RFO       ACCESS:     264086  HIT:      78062  MISS:     186024
LLC PREFETCH  ACCESS:     612194  HIT:     133640  MISS:     478554
LLC WRITEBACK ACCESS:     266103  HIT:     115300  MISS:     150803
Insertion Distribution: 
	LOAD 0 0 0 0 0 0 0 0 0 0 0 0 0 0 10292 9683 
	RFO 11609 0 0 0 0 0 0 0 0 0 0 0 0 0 20161 166738 
	PREF 0 46046 0 0 0 0 0 0 0 0 0 0 0 0 60555 422000 
	WRITEBACK 0 0 0 0 0 0 0 0 0 0 0 0 0 0 0 153195 
Total Prefetch Downgrades: 50746
