
*** ChampSim Multicore Out-of-Order Simulator ***

Warmup Instructions: 10000000
Simulation Instructions: 100000000
Configuration: 2
Number of CPUs: 1
LLC sets: 2048
LLC ways: 16
Off-chip DRAM Channels: 1 Width: 64-bit Data Rate: 1600 MT/s

CPU 0 runs /datasets/cs240c-wi22-a00-public/data/Assignment2-gz/calculix_3812B.trace.gz
CPU 0 L1D next line prefetcher
CPU 0 L2C IP-based stride prefetcher
Initialize SRRIP state
Heartbeat CPU 0 instructions: 1000001 cycles: 478689 heartbeat IPC: 2.08904 cumulative IPC: 2.08904 (Simulation time: 0 hr 1 min 29 sec) 
Heartbeat CPU 0 instructions: 2000002 cycles: 956483 heartbeat IPC: 2.09295 cumulative IPC: 2.091 (Simulation time: 0 hr 3 min 0 sec) 
Heartbeat CPU 0 instructions: 3000002 cycles: 1434999 heartbeat IPC: 2.08979 cumulative IPC: 2.0906 (Simulation time: 0 hr 4 min 33 sec) 
Heartbeat CPU 0 instructions: 4000000 cycles: 1907482 heartbeat IPC: 2.11647 cumulative IPC: 2.09701 (Simulation time: 0 hr 6 min 0 sec) 
Heartbeat CPU 0 instructions: 5000000 cycles: 2356309 heartbeat IPC: 2.22803 cumulative IPC: 2.12196 (Simulation time: 0 hr 7 min 20 sec) 
Heartbeat CPU 0 instructions: 6000003 cycles: 2761685 heartbeat IPC: 2.46685 cumulative IPC: 2.17259 (Simulation time: 0 hr 8 min 26 sec) 
Heartbeat CPU 0 instructions: 7000002 cycles: 3154795 heartbeat IPC: 2.54381 cumulative IPC: 2.21885 (Simulation time: 0 hr 9 min 26 sec) 
Heartbeat CPU 0 instructions: 8000000 cycles: 3547936 heartbeat IPC: 2.54361 cumulative IPC: 2.25483 (Simulation time: 0 hr 10 min 31 sec) 
Heartbeat CPU 0 instructions: 9000000 cycles: 3940925 heartbeat IPC: 2.5446 cumulative IPC: 2.28373 (Simulation time: 0 hr 11 min 33 sec) 
Heartbeat CPU 0 instructions: 10000003 cycles: 4334014 heartbeat IPC: 2.54396 cumulative IPC: 2.30733 (Simulation time: 0 hr 12 min 34 sec) 

Warmup complete CPU 0 instructions: 10000003 cycles: 4334014 (Simulation time: 0 hr 12 min 34 sec) 

Heartbeat CPU 0 instructions: 11000001 cycles: 4770214 heartbeat IPC: 2.29252 cumulative IPC: 2.29252 (Simulation time: 0 hr 13 min 44 sec) 
Heartbeat CPU 0 instructions: 12000000 cycles: 5205542 heartbeat IPC: 2.29712 cumulative IPC: 2.29482 (Simulation time: 0 hr 14 min 56 sec) 
Heartbeat CPU 0 instructions: 13000002 cycles: 5640784 heartbeat IPC: 2.29758 cumulative IPC: 2.29574 (Simulation time: 0 hr 16 min 7 sec) 
Heartbeat CPU 0 instructions: 14000000 cycles: 6436084 heartbeat IPC: 1.25738 cumulative IPC: 1.90288 (Simulation time: 0 hr 17 min 32 sec) 
Heartbeat CPU 0 instructions: 15000003 cycles: 6910646 heartbeat IPC: 2.10721 cumulative IPC: 1.94052 (Simulation time: 0 hr 18 min 39 sec) 
Heartbeat CPU 0 instructions: 16000000 cycles: 7355250 heartbeat IPC: 2.24919 cumulative IPC: 1.98594 (Simulation time: 0 hr 19 min 48 sec) 
Heartbeat CPU 0 instructions: 17000001 cycles: 7797535 heartbeat IPC: 2.26099 cumulative IPC: 2.02106 (Simulation time: 0 hr 20 min 54 sec) 
Heartbeat CPU 0 instructions: 18000001 cycles: 8235589 heartbeat IPC: 2.28282 cumulative IPC: 2.05045 (Simulation time: 0 hr 21 min 58 sec) 
Heartbeat CPU 0 instructions: 19000001 cycles: 8675172 heartbeat IPC: 2.27488 cumulative IPC: 2.07318 (Simulation time: 0 hr 23 min 4 sec) 
Heartbeat CPU 0 instructions: 20000000 cycles: 9196848 heartbeat IPC: 1.9169 cumulative IPC: 2.05641 (Simulation time: 0 hr 24 min 14 sec) 
Heartbeat CPU 0 instructions: 21000001 cycles: 9636094 heartbeat IPC: 2.27663 cumulative IPC: 2.07466 (Simulation time: 0 hr 25 min 23 sec) 
Heartbeat CPU 0 instructions: 22000000 cycles: 10076059 heartbeat IPC: 2.27291 cumulative IPC: 2.08985 (Simulation time: 0 hr 26 min 26 sec) 
Heartbeat CPU 0 instructions: 23000001 cycles: 10515509 heartbeat IPC: 2.27557 cumulative IPC: 2.10305 (Simulation time: 0 hr 27 min 30 sec) 
Heartbeat CPU 0 instructions: 24000000 cycles: 10955876 heartbeat IPC: 2.27083 cumulative IPC: 2.11421 (Simulation time: 0 hr 28 min 36 sec) 
Heartbeat CPU 0 instructions: 25000003 cycles: 11480849 heartbeat IPC: 1.90487 cumulative IPC: 2.09883 (Simulation time: 0 hr 29 min 45 sec) 
Heartbeat CPU 0 instructions: 26000003 cycles: 12028316 heartbeat IPC: 1.82659 cumulative IPC: 2.07946 (Simulation time: 0 hr 30 min 52 sec) 
Heartbeat CPU 0 instructions: 27000000 cycles: 12562746 heartbeat IPC: 1.87115 cumulative IPC: 2.06593 (Simulation time: 0 hr 32 min 4 sec) 
Heartbeat CPU 0 instructions: 28000000 cycles: 13207180 heartbeat IPC: 1.55175 cumulative IPC: 2.02859 (Simulation time: 0 hr 33 min 16 sec) 
Heartbeat CPU 0 instructions: 29000002 cycles: 13685036 heartbeat IPC: 2.09268 cumulative IPC: 2.03186 (Simulation time: 0 hr 34 min 24 sec) 
Heartbeat CPU 0 instructions: 30000001 cycles: 14239736 heartbeat IPC: 1.80277 cumulative IPC: 2.01903 (Simulation time: 0 hr 35 min 33 sec) 
Heartbeat CPU 0 instructions: 31000001 cycles: 14789685 heartbeat IPC: 1.81835 cumulative IPC: 2.00848 (Simulation time: 0 hr 36 min 42 sec) 
Heartbeat CPU 0 instructions: 32000000 cycles: 15525005 heartbeat IPC: 1.35995 cumulative IPC: 1.96587 (Simulation time: 0 hr 38 min 4 sec) 
Heartbeat CPU 0 instructions: 33000003 cycles: 16229623 heartbeat IPC: 1.41921 cumulative IPC: 1.93349 (Simulation time: 0 hr 39 min 28 sec) 
Heartbeat CPU 0 instructions: 34000000 cycles: 16929563 heartbeat IPC: 1.42869 cumulative IPC: 1.90543 (Simulation time: 0 hr 40 min 54 sec) 
Heartbeat CPU 0 instructions: 35000000 cycles: 17602762 heartbeat IPC: 1.48544 cumulative IPC: 1.88413 (Simulation time: 0 hr 42 min 16 sec) 
Heartbeat CPU 0 instructions: 36000000 cycles: 18244095 heartbeat IPC: 1.55925 cumulative IPC: 1.86915 (Simulation time: 0 hr 43 min 34 sec) 
Heartbeat CPU 0 instructions: 37000002 cycles: 18869912 heartbeat IPC: 1.59791 cumulative IPC: 1.85747 (Simulation time: 0 hr 44 min 55 sec) 
Heartbeat CPU 0 instructions: 38000003 cycles: 19504919 heartbeat IPC: 1.57479 cumulative IPC: 1.84564 (Simulation time: 0 hr 46 min 15 sec) 
Heartbeat CPU 0 instructions: 39000003 cycles: 20279462 heartbeat IPC: 1.29108 cumulative IPC: 1.8187 (Simulation time: 0 hr 47 min 30 sec) 
Heartbeat CPU 0 instructions: 40000000 cycles: 21119494 heartbeat IPC: 1.19043 cumulative IPC: 1.78726 (Simulation time: 0 hr 48 min 49 sec) 
Heartbeat CPU 0 instructions: 41000000 cycles: 22055334 heartbeat IPC: 1.06856 cumulative IPC: 1.74931 (Simulation time: 0 hr 50 min 10 sec) 
Heartbeat CPU 0 instructions: 42000001 cycles: 22665789 heartbeat IPC: 1.63812 cumulative IPC: 1.7456 (Simulation time: 0 hr 51 min 24 sec) 
Heartbeat CPU 0 instructions: 43000000 cycles: 23290296 heartbeat IPC: 1.60126 cumulative IPC: 1.74085 (Simulation time: 0 hr 52 min 42 sec) 
Heartbeat CPU 0 instructions: 44000000 cycles: 23967172 heartbeat IPC: 1.47738 cumulative IPC: 1.73176 (Simulation time: 0 hr 54 min 3 sec) 
Heartbeat CPU 0 instructions: 45000002 cycles: 24641581 heartbeat IPC: 1.48278 cumulative IPC: 1.7235 (Simulation time: 0 hr 55 min 24 sec) 
Heartbeat CPU 0 instructions: 46000002 cycles: 25371244 heartbeat IPC: 1.3705 cumulative IPC: 1.71125 (Simulation time: 0 hr 56 min 43 sec) 
Heartbeat CPU 0 instructions: 47000002 cycles: 26245249 heartbeat IPC: 1.14416 cumulative IPC: 1.68863 (Simulation time: 0 hr 57 min 57 sec) 
Heartbeat CPU 0 instructions: 48000000 cycles: 26703744 heartbeat IPC: 2.18104 cumulative IPC: 1.69872 (Simulation time: 0 hr 59 min 5 sec) 
Heartbeat CPU 0 instructions: 49000000 cycles: 27161989 heartbeat IPC: 2.18224 cumulative IPC: 1.70843 (Simulation time: 1 hr 0 min 11 sec) 
Heartbeat CPU 0 instructions: 50000000 cycles: 27646503 heartbeat IPC: 2.06392 cumulative IPC: 1.71582 (Simulation time: 1 hr 1 min 27 sec) 
Heartbeat CPU 0 instructions: 51000000 cycles: 28230118 heartbeat IPC: 1.71346 cumulative IPC: 1.71576 (Simulation time: 1 hr 2 min 39 sec) 
Heartbeat CPU 0 instructions: 52000000 cycles: 28776656 heartbeat IPC: 1.8297 cumulative IPC: 1.71831 (Simulation time: 1 hr 3 min 51 sec) 
Heartbeat CPU 0 instructions: 53000000 cycles: 29242434 heartbeat IPC: 2.14695 cumulative IPC: 1.72632 (Simulation time: 1 hr 5 min 0 sec) 
Heartbeat CPU 0 instructions: 54000003 cycles: 29706462 heartbeat IPC: 2.15505 cumulative IPC: 1.73416 (Simulation time: 1 hr 6 min 9 sec) 
Heartbeat CPU 0 instructions: 55000001 cycles: 30171182 heartbeat IPC: 2.15183 cumulative IPC: 1.74168 (Simulation time: 1 hr 7 min 13 sec) 
Heartbeat CPU 0 instructions: 56000000 cycles: 30635189 heartbeat IPC: 2.15514 cumulative IPC: 1.74897 (Simulation time: 1 hr 8 min 19 sec) 
Heartbeat CPU 0 instructions: 57000003 cycles: 31102240 heartbeat IPC: 2.1411 cumulative IPC: 1.75581 (Simulation time: 1 hr 9 min 30 sec) 
Heartbeat CPU 0 instructions: 58000002 cycles: 31574520 heartbeat IPC: 2.11739 cumulative IPC: 1.76208 (Simulation time: 1 hr 10 min 41 sec) 
Heartbeat CPU 0 instructions: 59000001 cycles: 32134883 heartbeat IPC: 1.78456 cumulative IPC: 1.76253 (Simulation time: 1 hr 11 min 50 sec) 
Heartbeat CPU 0 instructions: 60000000 cycles: 32659920 heartbeat IPC: 1.90463 cumulative IPC: 1.76517 (Simulation time: 1 hr 13 min 2 sec) 
Heartbeat CPU 0 instructions: 61000003 cycles: 33191768 heartbeat IPC: 1.88024 cumulative IPC: 1.76729 (Simulation time: 1 hr 14 min 9 sec) 
Heartbeat CPU 0 instructions: 62000002 cycles: 33723351 heartbeat IPC: 1.88117 cumulative IPC: 1.76935 (Simulation time: 1 hr 15 min 18 sec) 
Heartbeat CPU 0 instructions: 63000003 cycles: 34254969 heartbeat IPC: 1.88105 cumulative IPC: 1.77133 (Simulation time: 1 hr 16 min 29 sec) 
Heartbeat CPU 0 instructions: 64000000 cycles: 34786924 heartbeat IPC: 1.87985 cumulative IPC: 1.77323 (Simulation time: 1 hr 17 min 41 sec) 
Heartbeat CPU 0 instructions: 65000000 cycles: 35467875 heartbeat IPC: 1.46853 cumulative IPC: 1.76657 (Simulation time: 1 hr 18 min 57 sec) 
Heartbeat CPU 0 instructions: 66000002 cycles: 36036558 heartbeat IPC: 1.75845 cumulative IPC: 1.76642 (Simulation time: 1 hr 20 min 8 sec) 
Heartbeat CPU 0 instructions: 67000002 cycles: 36546136 heartbeat IPC: 1.96241 cumulative IPC: 1.76952 (Simulation time: 1 hr 21 min 16 sec) 
Heartbeat CPU 0 instructions: 68000000 cycles: 37045925 heartbeat IPC: 2.00084 cumulative IPC: 1.77305 (Simulation time: 1 hr 22 min 23 sec) 
Heartbeat CPU 0 instructions: 69000001 cycles: 37589642 heartbeat IPC: 1.83919 cumulative IPC: 1.77414 (Simulation time: 1 hr 23 min 33 sec) 
Heartbeat CPU 0 instructions: 70000000 cycles: 38082878 heartbeat IPC: 2.02743 cumulative IPC: 1.77784 (Simulation time: 1 hr 24 min 41 sec) 
Heartbeat CPU 0 instructions: 71000000 cycles: 38580274 heartbeat IPC: 2.01047 cumulative IPC: 1.78122 (Simulation time: 1 hr 25 min 56 sec) 
Heartbeat CPU 0 instructions: 72000000 cycles: 39089434 heartbeat IPC: 1.96402 cumulative IPC: 1.78389 (Simulation time: 1 hr 27 min 1 sec) 
Heartbeat CPU 0 instructions: 73000001 cycles: 39636072 heartbeat IPC: 1.82937 cumulative IPC: 1.7846 (Simulation time: 1 hr 28 min 12 sec) 
Heartbeat CPU 0 instructions: 74000002 cycles: 40252801 heartbeat IPC: 1.62146 cumulative IPC: 1.7818 (Simulation time: 1 hr 29 min 22 sec) 
Heartbeat CPU 0 instructions: 75000000 cycles: 40791309 heartbeat IPC: 1.85698 cumulative IPC: 1.78291 (Simulation time: 1 hr 30 min 30 sec) 
Heartbeat CPU 0 instructions: 76000000 cycles: 41518970 heartbeat IPC: 1.37427 cumulative IPC: 1.77491 (Simulation time: 1 hr 31 min 50 sec) 
Heartbeat CPU 0 instructions: 77000000 cycles: 42239933 heartbeat IPC: 1.38703 cumulative IPC: 1.76753 (Simulation time: 1 hr 33 min 13 sec) 
Heartbeat CPU 0 instructions: 78000003 cycles: 42958514 heartbeat IPC: 1.39164 cumulative IPC: 1.76054 (Simulation time: 1 hr 34 min 35 sec) 
Heartbeat CPU 0 instructions: 79000000 cycles: 43669415 heartbeat IPC: 1.40666 cumulative IPC: 1.75415 (Simulation time: 1 hr 35 min 58 sec) 
Heartbeat CPU 0 instructions: 80000000 cycles: 44354497 heartbeat IPC: 1.45968 cumulative IPC: 1.7491 (Simulation time: 1 hr 37 min 19 sec) 
Heartbeat CPU 0 instructions: 81000001 cycles: 45018829 heartbeat IPC: 1.50527 cumulative IPC: 1.74512 (Simulation time: 1 hr 38 min 41 sec) 
Heartbeat CPU 0 instructions: 82000002 cycles: 45661787 heartbeat IPC: 1.55531 cumulative IPC: 1.74217 (Simulation time: 1 hr 40 min 5 sec) 
Heartbeat CPU 0 instructions: 83000002 cycles: 46478741 heartbeat IPC: 1.22406 cumulative IPC: 1.73213 (Simulation time: 1 hr 41 min 22 sec) 
Heartbeat CPU 0 instructions: 84000000 cycles: 47220685 heartbeat IPC: 1.34781 cumulative IPC: 1.72548 (Simulation time: 1 hr 42 min 33 sec) 
Heartbeat CPU 0 instructions: 85000000 cycles: 47802432 heartbeat IPC: 1.71896 cumulative IPC: 1.72539 (Simulation time: 1 hr 43 min 45 sec) 
Heartbeat CPU 0 instructions: 86000001 cycles: 48384635 heartbeat IPC: 1.71762 cumulative IPC: 1.72529 (Simulation time: 1 hr 44 min 54 sec) 
Heartbeat CPU 0 instructions: 87000002 cycles: 48966877 heartbeat IPC: 1.7175 cumulative IPC: 1.72519 (Simulation time: 1 hr 46 min 4 sec) 
Heartbeat CPU 0 instructions: 88000000 cycles: 49546426 heartbeat IPC: 1.72548 cumulative IPC: 1.72519 (Simulation time: 1 hr 47 min 12 sec) 
Heartbeat CPU 0 instructions: 89000001 cycles: 50122668 heartbeat IPC: 1.73538 cumulative IPC: 1.72532 (Simulation time: 1 hr 48 min 20 sec) 
Heartbeat CPU 0 instructions: 90000001 cycles: 50695139 heartbeat IPC: 1.74681 cumulative IPC: 1.72558 (Simulation time: 1 hr 49 min 28 sec) 
Heartbeat CPU 0 instructions: 91000003 cycles: 51276293 heartbeat IPC: 1.72072 cumulative IPC: 1.72552 (Simulation time: 1 hr 50 min 42 sec) 
Heartbeat CPU 0 instructions: 92000000 cycles: 51748885 heartbeat IPC: 2.11598 cumulative IPC: 1.72942 (Simulation time: 1 hr 51 min 47 sec) 
Heartbeat CPU 0 instructions: 93000000 cycles: 52202823 heartbeat IPC: 2.20294 cumulative IPC: 1.73391 (Simulation time: 1 hr 52 min 56 sec) 
Heartbeat CPU 0 instructions: 94000003 cycles: 52654003 heartbeat IPC: 2.21642 cumulative IPC: 1.73841 (Simulation time: 1 hr 54 min 3 sec) 
Heartbeat CPU 0 instructions: 95000002 cycles: 53255418 heartbeat IPC: 1.66274 cumulative IPC: 1.73748 (Simulation time: 1 hr 55 min 15 sec) 
Heartbeat CPU 0 instructions: 96000000 cycles: 53783287 heartbeat IPC: 1.89441 cumulative IPC: 1.73916 (Simulation time: 1 hr 56 min 24 sec) 
Heartbeat CPU 0 instructions: 97000000 cycles: 54258813 heartbeat IPC: 2.10293 cumulative IPC: 1.74262 (Simulation time: 1 hr 57 min 31 sec) 
Heartbeat CPU 0 instructions: 98000003 cycles: 54726546 heartbeat IPC: 2.13798 cumulative IPC: 1.74629 (Simulation time: 1 hr 58 min 40 sec) 
Heartbeat CPU 0 instructions: 99000000 cycles: 55191791 heartbeat IPC: 2.1494 cumulative IPC: 1.74998 (Simulation time: 1 hr 59 min 47 sec) 
Heartbeat CPU 0 instructions: 100000000 cycles: 55657138 heartbeat IPC: 2.14893 cumulative IPC: 1.7536 (Simulation time: 2 hr 0 min 55 sec) 
Heartbeat CPU 0 instructions: 101000003 cycles: 56123476 heartbeat IPC: 2.14437 cumulative IPC: 1.75711 (Simulation time: 2 hr 2 min 4 sec) 
Heartbeat CPU 0 instructions: 102000002 cycles: 56647204 heartbeat IPC: 1.90939 cumulative IPC: 1.75864 (Simulation time: 2 hr 3 min 11 sec) 
Heartbeat CPU 0 instructions: 103000000 cycles: 57177626 heartbeat IPC: 1.88529 cumulative IPC: 1.75991 (Simulation time: 2 hr 4 min 20 sec) 
Heartbeat CPU 0 instructions: 104000000 cycles: 57704728 heartbeat IPC: 1.89717 cumulative IPC: 1.76127 (Simulation time: 2 hr 5 min 30 sec) 
Heartbeat CPU 0 instructions: 105000000 cycles: 58233814 heartbeat IPC: 1.89005 cumulative IPC: 1.76253 (Simulation time: 2 hr 6 min 38 sec) 
Heartbeat CPU 0 instructions: 106000003 cycles: 58764059 heartbeat IPC: 1.88593 cumulative IPC: 1.76373 (Simulation time: 2 hr 7 min 46 sec) 
Heartbeat CPU 0 instructions: 107000000 cycles: 59291896 heartbeat IPC: 1.89452 cumulative IPC: 1.76499 (Simulation time: 2 hr 8 min 51 sec) 
Heartbeat CPU 0 instructions: 108000000 cycles: 59877482 heartbeat IPC: 1.70769 cumulative IPC: 1.76438 (Simulation time: 2 hr 9 min 59 sec) 
Heartbeat CPU 0 instructions: 109000002 cycles: 60529295 heartbeat IPC: 1.53419 cumulative IPC: 1.76171 (Simulation time: 2 hr 11 min 11 sec) 
Heartbeat CPU 0 instructions: 110000003 cycles: 61016706 heartbeat IPC: 2.05166 cumulative IPC: 1.76421 (Simulation time: 2 hr 12 min 13 sec) 
Finished CPU 0 instructions: 100000000 cycles: 56682692 cummulative IPC: 1.76421 (Simulation time: 2 hr 12 min 13 sec) 

ChampSim completed all CPUs

Region of Interest Statistics

CPU 0 cummulative IPC: 1.76421 instructions: 100000000 cycles: 56682692
LLC TOTAL     ACCESS:    1161487  HIT:     926121  MISS:     235366
LLC LOAD      ACCESS:     133771  HIT:     123997  MISS:       9774
LLC RFO       ACCESS:      47548  HIT:      14732  MISS:      32816
LLC PREFETCH  ACCESS:     680347  HIT:     501611  MISS:     178736
LLC WRITEBACK ACCESS:     299821  HIT:     285781  MISS:      14040
Insertion Distribution: 
	LOAD 2668 0 0 0 0 0 0 0 0 0 0 0 0 0 5221 2662 
	RFO 11113 0 0 0 0 0 0 0 0 0 0 0 0 0 17374 10385 
	PREF 0 8579 0 0 0 0 0 0 0 0 0 0 0 0 16601 160917 
	WRITEBACK 0 0 0 0 0 0 0 0 0 0 0 0 0 0 0 14744 
Total Prefetch Downgrades: 7713
