
*** ChampSim Multicore Out-of-Order Simulator ***

Warmup Instructions: 10000000
Simulation Instructions: 100000000
Configuration: 2
Number of CPUs: 1
LLC sets: 2048
LLC ways: 16
Off-chip DRAM Channels: 1 Width: 64-bit Data Rate: 1600 MT/s

CPU 0 runs /datasets/cs240c-wi22-a00-public/data/Assignment2-gz/soplex_217B.trace.gz
CPU 0 L1D next line prefetcher
CPU 0 L2C IP-based stride prefetcher
Initialize SRRIP state
Heartbeat CPU 0 instructions: 1000002 cycles: 441468 heartbeat IPC: 2.26517 cumulative IPC: 2.26517 (Simulation time: 0 hr 1 min 56 sec) 
Heartbeat CPU 0 instructions: 2000003 cycles: 800624 heartbeat IPC: 2.78431 cumulative IPC: 2.49806 (Simulation time: 0 hr 3 min 43 sec) 
Heartbeat CPU 0 instructions: 3000002 cycles: 1245723 heartbeat IPC: 2.24669 cumulative IPC: 2.40824 (Simulation time: 0 hr 5 min 33 sec) 
Heartbeat CPU 0 instructions: 4000000 cycles: 1674683 heartbeat IPC: 2.33122 cumulative IPC: 2.38851 (Simulation time: 0 hr 7 min 27 sec) 
Heartbeat CPU 0 instructions: 5000001 cycles: 2058738 heartbeat IPC: 2.6038 cumulative IPC: 2.42867 (Simulation time: 0 hr 9 min 0 sec) 
Heartbeat CPU 0 instructions: 6000000 cycles: 2433247 heartbeat IPC: 2.67016 cumulative IPC: 2.46584 (Simulation time: 0 hr 10 min 31 sec) 
Heartbeat CPU 0 instructions: 7000003 cycles: 2961850 heartbeat IPC: 1.89178 cumulative IPC: 2.36339 (Simulation time: 0 hr 12 min 1 sec) 
Heartbeat CPU 0 instructions: 8000000 cycles: 3408036 heartbeat IPC: 2.24121 cumulative IPC: 2.34739 (Simulation time: 0 hr 13 min 54 sec) 
Heartbeat CPU 0 instructions: 9000001 cycles: 3832500 heartbeat IPC: 2.35591 cumulative IPC: 2.34834 (Simulation time: 0 hr 15 min 46 sec) 
Heartbeat CPU 0 instructions: 10000000 cycles: 4244746 heartbeat IPC: 2.42573 cumulative IPC: 2.35585 (Simulation time: 0 hr 17 min 27 sec) 

Warmup complete CPU 0 instructions: 10000004 cycles: 4244747 (Simulation time: 0 hr 17 min 27 sec) 

Heartbeat CPU 0 instructions: 11000002 cycles: 7829591 heartbeat IPC: 0.278953 cumulative IPC: 0.278952 (Simulation time: 0 hr 20 min 2 sec) 
Heartbeat CPU 0 instructions: 12000000 cycles: 10318709 heartbeat IPC: 0.401748 cumulative IPC: 0.329274 (Simulation time: 0 hr 21 min 50 sec) 
Heartbeat CPU 0 instructions: 13000000 cycles: 11636513 heartbeat IPC: 0.758838 cumulative IPC: 0.405856 (Simulation time: 0 hr 23 min 15 sec) 
Heartbeat CPU 0 instructions: 14000000 cycles: 14242243 heartbeat IPC: 0.38377 cumulative IPC: 0.4001 (Simulation time: 0 hr 25 min 16 sec) 
Heartbeat CPU 0 instructions: 15000000 cycles: 16955615 heartbeat IPC: 0.368545 cumulative IPC: 0.393364 (Simulation time: 0 hr 27 min 26 sec) 
Heartbeat CPU 0 instructions: 16000000 cycles: 20549441 heartbeat IPC: 0.278255 cumulative IPC: 0.367992 (Simulation time: 0 hr 30 min 20 sec) 
Heartbeat CPU 0 instructions: 17000002 cycles: 22888967 heartbeat IPC: 0.427438 cumulative IPC: 0.375451 (Simulation time: 0 hr 32 min 22 sec) 
Heartbeat CPU 0 instructions: 18000002 cycles: 25464653 heartbeat IPC: 0.388246 cumulative IPC: 0.377004 (Simulation time: 0 hr 34 min 36 sec) 
Heartbeat CPU 0 instructions: 19000000 cycles: 28935057 heartbeat IPC: 0.28815 cumulative IPC: 0.364515 (Simulation time: 0 hr 36 min 57 sec) 
Heartbeat CPU 0 instructions: 20000000 cycles: 30251820 heartbeat IPC: 0.759438 cumulative IPC: 0.384511 (Simulation time: 0 hr 38 min 17 sec) 
Heartbeat CPU 0 instructions: 21000000 cycles: 31667357 heartbeat IPC: 0.706446 cumulative IPC: 0.401129 (Simulation time: 0 hr 39 min 54 sec) 
Heartbeat CPU 0 instructions: 22000001 cycles: 34945587 heartbeat IPC: 0.305043 cumulative IPC: 0.390869 (Simulation time: 0 hr 42 min 10 sec) 
Heartbeat CPU 0 instructions: 23000003 cycles: 38180351 heartbeat IPC: 0.309142 cumulative IPC: 0.383078 (Simulation time: 0 hr 44 min 44 sec) 
Heartbeat CPU 0 instructions: 24000000 cycles: 41620200 heartbeat IPC: 0.29071 cumulative IPC: 0.374577 (Simulation time: 0 hr 47 min 20 sec) 
Heartbeat CPU 0 instructions: 25000001 cycles: 43064741 heartbeat IPC: 0.692262 cumulative IPC: 0.386399 (Simulation time: 0 hr 49 min 13 sec) 
Heartbeat CPU 0 instructions: 26000003 cycles: 46858104 heartbeat IPC: 0.263619 cumulative IPC: 0.375469 (Simulation time: 0 hr 51 min 57 sec) 
Heartbeat CPU 0 instructions: 27000002 cycles: 49198320 heartbeat IPC: 0.427311 cumulative IPC: 0.378168 (Simulation time: 0 hr 53 min 42 sec) 
Heartbeat CPU 0 instructions: 28000000 cycles: 50511405 heartbeat IPC: 0.761564 cumulative IPC: 0.389049 (Simulation time: 0 hr 55 min 7 sec) 
Heartbeat CPU 0 instructions: 29000002 cycles: 53186857 heartbeat IPC: 0.373769 cumulative IPC: 0.388214 (Simulation time: 0 hr 56 min 55 sec) 
Heartbeat CPU 0 instructions: 30000002 cycles: 55974498 heartbeat IPC: 0.358726 cumulative IPC: 0.386625 (Simulation time: 0 hr 59 min 8 sec) 
Heartbeat CPU 0 instructions: 31000000 cycles: 59136932 heartbeat IPC: 0.316211 cumulative IPC: 0.382568 (Simulation time: 1 hr 1 min 32 sec) 
Heartbeat CPU 0 instructions: 32000000 cycles: 60932915 heartbeat IPC: 0.556798 cumulative IPC: 0.388088 (Simulation time: 1 hr 3 min 35 sec) 
Heartbeat CPU 0 instructions: 33000001 cycles: 64348203 heartbeat IPC: 0.292801 cumulative IPC: 0.382673 (Simulation time: 1 hr 6 min 7 sec) 
Heartbeat CPU 0 instructions: 34000000 cycles: 67073822 heartbeat IPC: 0.366889 cumulative IPC: 0.381989 (Simulation time: 1 hr 8 min 2 sec) 
Heartbeat CPU 0 instructions: 35000002 cycles: 68402655 heartbeat IPC: 0.752542 cumulative IPC: 0.389664 (Simulation time: 1 hr 9 min 29 sec) 
Heartbeat CPU 0 instructions: 36000000 cycles: 70615275 heartbeat IPC: 0.451952 cumulative IPC: 0.39174 (Simulation time: 1 hr 11 min 20 sec) 
Heartbeat CPU 0 instructions: 37000002 cycles: 73277347 heartbeat IPC: 0.375648 cumulative IPC: 0.39112 (Simulation time: 1 hr 13 min 33 sec) 
Heartbeat CPU 0 instructions: 38000000 cycles: 76669296 heartbeat IPC: 0.294815 cumulative IPC: 0.386609 (Simulation time: 1 hr 16 min 11 sec) 
Heartbeat CPU 0 instructions: 39000001 cycles: 78714401 heartbeat IPC: 0.488973 cumulative IPC: 0.38942 (Simulation time: 1 hr 18 min 11 sec) 
Heartbeat CPU 0 instructions: 40000000 cycles: 81811088 heartbeat IPC: 0.322925 cumulative IPC: 0.386766 (Simulation time: 1 hr 20 min 34 sec) 
Heartbeat CPU 0 instructions: 41000000 cycles: 84776588 heartbeat IPC: 0.337211 cumulative IPC: 0.384941 (Simulation time: 1 hr 22 min 41 sec) 
Heartbeat CPU 0 instructions: 42000002 cycles: 86110052 heartbeat IPC: 0.749928 cumulative IPC: 0.390886 (Simulation time: 1 hr 23 min 58 sec) 
Heartbeat CPU 0 instructions: 43000001 cycles: 87902397 heartbeat IPC: 0.557928 cumulative IPC: 0.394465 (Simulation time: 1 hr 25 min 31 sec) 
Heartbeat CPU 0 instructions: 44000000 cycles: 90762851 heartbeat IPC: 0.349595 cumulative IPC: 0.392981 (Simulation time: 1 hr 27 min 21 sec) 
Heartbeat CPU 0 instructions: 45000003 cycles: 94272058 heartbeat IPC: 0.284966 cumulative IPC: 0.388771 (Simulation time: 1 hr 29 min 30 sec) 
Heartbeat CPU 0 instructions: 46000000 cycles: 97199765 heartbeat IPC: 0.341563 cumulative IPC: 0.387284 (Simulation time: 1 hr 31 min 35 sec) 
Heartbeat CPU 0 instructions: 47000001 cycles: 98835453 heartbeat IPC: 0.611364 cumulative IPC: 0.391159 (Simulation time: 1 hr 33 min 16 sec) 
Heartbeat CPU 0 instructions: 48000000 cycles: 102362257 heartbeat IPC: 0.283543 cumulative IPC: 0.387291 (Simulation time: 1 hr 35 min 25 sec) 
Heartbeat CPU 0 instructions: 49000000 cycles: 104905356 heartbeat IPC: 0.393221 cumulative IPC: 0.387441 (Simulation time: 1 hr 36 min 58 sec) 
Heartbeat CPU 0 instructions: 50000001 cycles: 106235908 heartbeat IPC: 0.751568 cumulative IPC: 0.392191 (Simulation time: 1 hr 38 min 3 sec) 
Heartbeat CPU 0 instructions: 51000000 cycles: 108790546 heartbeat IPC: 0.391445 cumulative IPC: 0.392173 (Simulation time: 1 hr 39 min 32 sec) 
Heartbeat CPU 0 instructions: 52000000 cycles: 111528570 heartbeat IPC: 0.365227 cumulative IPC: 0.391485 (Simulation time: 1 hr 41 min 25 sec) 
Heartbeat CPU 0 instructions: 53000000 cycles: 114780958 heartbeat IPC: 0.307466 cumulative IPC: 0.389013 (Simulation time: 1 hr 43 min 28 sec) 
Heartbeat CPU 0 instructions: 54000000 cycles: 116687378 heartbeat IPC: 0.524543 cumulative IPC: 0.391311 (Simulation time: 1 hr 45 min 4 sec) 
Heartbeat CPU 0 instructions: 55000000 cycles: 119982688 heartbeat IPC: 0.303462 cumulative IPC: 0.388809 (Simulation time: 1 hr 47 min 5 sec) 
Heartbeat CPU 0 instructions: 56000000 cycles: 122795188 heartbeat IPC: 0.355556 cumulative IPC: 0.38802 (Simulation time: 1 hr 48 min 45 sec) 
Heartbeat CPU 0 instructions: 57000003 cycles: 124107718 heartbeat IPC: 0.76189 cumulative IPC: 0.392114 (Simulation time: 1 hr 49 min 50 sec) 
Heartbeat CPU 0 instructions: 58000000 cycles: 126284586 heartbeat IPC: 0.459374 cumulative IPC: 0.393314 (Simulation time: 1 hr 51 min 16 sec) 
Heartbeat CPU 0 instructions: 59000000 cycles: 128928426 heartbeat IPC: 0.378238 cumulative IPC: 0.392994 (Simulation time: 1 hr 52 min 57 sec) 
Heartbeat CPU 0 instructions: 60000000 cycles: 132282927 heartbeat IPC: 0.298107 cumulative IPC: 0.390508 (Simulation time: 1 hr 55 min 9 sec) 
Heartbeat CPU 0 instructions: 61000000 cycles: 134561352 heartbeat IPC: 0.4389 cumulative IPC: 0.391355 (Simulation time: 1 hr 56 min 47 sec) 
Heartbeat CPU 0 instructions: 62000002 cycles: 137268169 heartbeat IPC: 0.369438 cumulative IPC: 0.390909 (Simulation time: 1 hr 58 min 39 sec) 
Heartbeat CPU 0 instructions: 63000001 cycles: 140595000 heartbeat IPC: 0.300586 cumulative IPC: 0.388705 (Simulation time: 2 hr 0 min 31 sec) 
Heartbeat CPU 0 instructions: 64000000 cycles: 141918367 heartbeat IPC: 0.755648 cumulative IPC: 0.392232 (Simulation time: 2 hr 1 min 40 sec) 
Heartbeat CPU 0 instructions: 65000001 cycles: 143430568 heartbeat IPC: 0.661288 cumulative IPC: 0.395155 (Simulation time: 2 hr 2 min 51 sec) 
Heartbeat CPU 0 instructions: 66000002 cycles: 146551455 heartbeat IPC: 0.320422 cumulative IPC: 0.393516 (Simulation time: 2 hr 4 min 34 sec) 
Heartbeat CPU 0 instructions: 67000000 cycles: 149787452 heartbeat IPC: 0.309023 cumulative IPC: 0.391638 (Simulation time: 2 hr 6 min 36 sec) 
Heartbeat CPU 0 instructions: 68000000 cycles: 155856789 heartbeat IPC: 0.164763 cumulative IPC: 0.382555 (Simulation time: 2 hr 8 min 48 sec) 
Heartbeat CPU 0 instructions: 69000001 cycles: 160204379 heartbeat IPC: 0.230013 cumulative IPC: 0.378303 (Simulation time: 2 hr 11 min 5 sec) 
Heartbeat CPU 0 instructions: 70000002 cycles: 164422334 heartbeat IPC: 0.237082 cumulative IPC: 0.374584 (Simulation time: 2 hr 13 min 33 sec) 
Heartbeat CPU 0 instructions: 71000002 cycles: 169078346 heartbeat IPC: 0.214776 cumulative IPC: 0.37007 (Simulation time: 2 hr 16 min 4 sec) 
Heartbeat CPU 0 instructions: 72000000 cycles: 172595650 heartbeat IPC: 0.284308 cumulative IPC: 0.368278 (Simulation time: 2 hr 18 min 12 sec) 
Heartbeat CPU 0 instructions: 73000000 cycles: 175879550 heartbeat IPC: 0.304516 cumulative IPC: 0.367058 (Simulation time: 2 hr 20 min 21 sec) 
Heartbeat CPU 0 instructions: 74000000 cycles: 179625433 heartbeat IPC: 0.26696 cumulative IPC: 0.36492 (Simulation time: 2 hr 22 min 14 sec) 
Heartbeat CPU 0 instructions: 75000002 cycles: 183576948 heartbeat IPC: 0.253068 cumulative IPC: 0.362456 (Simulation time: 2 hr 24 min 27 sec) 
Heartbeat CPU 0 instructions: 76000000 cycles: 186138384 heartbeat IPC: 0.390405 cumulative IPC: 0.362849 (Simulation time: 2 hr 26 min 2 sec) 
Heartbeat CPU 0 instructions: 77000000 cycles: 189807647 heartbeat IPC: 0.272534 cumulative IPC: 0.361064 (Simulation time: 2 hr 27 min 55 sec) 
Heartbeat CPU 0 instructions: 78000002 cycles: 192106212 heartbeat IPC: 0.435055 cumulative IPC: 0.361969 (Simulation time: 2 hr 29 min 19 sec) 
Heartbeat CPU 0 instructions: 79000000 cycles: 194093621 heartbeat IPC: 0.503167 cumulative IPC: 0.363447 (Simulation time: 2 hr 30 min 36 sec) 
Heartbeat CPU 0 instructions: 80000000 cycles: 195222514 heartbeat IPC: 0.885824 cumulative IPC: 0.366535 (Simulation time: 2 hr 31 min 30 sec) 
Heartbeat CPU 0 instructions: 81000003 cycles: 197621135 heartbeat IPC: 0.416907 cumulative IPC: 0.36716 (Simulation time: 2 hr 32 min 36 sec) 
Heartbeat CPU 0 instructions: 82000001 cycles: 201143506 heartbeat IPC: 0.283899 cumulative IPC: 0.36567 (Simulation time: 2 hr 33 min 51 sec) 
Heartbeat CPU 0 instructions: 83000002 cycles: 203651118 heartbeat IPC: 0.398786 cumulative IPC: 0.366087 (Simulation time: 2 hr 34 min 56 sec) 
Heartbeat CPU 0 instructions: 84000000 cycles: 205988823 heartbeat IPC: 0.427769 cumulative IPC: 0.366801 (Simulation time: 2 hr 35 min 51 sec) 
Heartbeat CPU 0 instructions: 85000000 cycles: 207627087 heartbeat IPC: 0.610402 cumulative IPC: 0.368764 (Simulation time: 2 hr 36 min 44 sec) 
Heartbeat CPU 0 instructions: 86000001 cycles: 211262297 heartbeat IPC: 0.275088 cumulative IPC: 0.367119 (Simulation time: 2 hr 37 min 52 sec) 
Heartbeat CPU 0 instructions: 87000000 cycles: 213814205 heartbeat IPC: 0.391863 cumulative IPC: 0.36742 (Simulation time: 2 hr 38 min 37 sec) 
Heartbeat CPU 0 instructions: 88000000 cycles: 215135408 heartbeat IPC: 0.756886 cumulative IPC: 0.36986 (Simulation time: 2 hr 39 min 9 sec) 
Heartbeat CPU 0 instructions: 89000003 cycles: 217727610 heartbeat IPC: 0.385774 cumulative IPC: 0.370053 (Simulation time: 2 hr 39 min 53 sec) 
Heartbeat CPU 0 instructions: 90000002 cycles: 220486388 heartbeat IPC: 0.362479 cumulative IPC: 0.369956 (Simulation time: 2 hr 40 min 43 sec) 
Heartbeat CPU 0 instructions: 91000001 cycles: 223772915 heartbeat IPC: 0.304272 cumulative IPC: 0.368973 (Simulation time: 2 hr 41 min 39 sec) 
Heartbeat CPU 0 instructions: 92000000 cycles: 225625642 heartbeat IPC: 0.539744 cumulative IPC: 0.370402 (Simulation time: 2 hr 42 min 18 sec) 
Heartbeat CPU 0 instructions: 93000000 cycles: 229016269 heartbeat IPC: 0.294931 cumulative IPC: 0.369264 (Simulation time: 2 hr 43 min 8 sec) 
Heartbeat CPU 0 instructions: 94000001 cycles: 231843554 heartbeat IPC: 0.353697 cumulative IPC: 0.36907 (Simulation time: 2 hr 43 min 53 sec) 
Heartbeat CPU 0 instructions: 95000003 cycles: 233175118 heartbeat IPC: 0.750998 cumulative IPC: 0.371292 (Simulation time: 2 hr 44 min 22 sec) 
Heartbeat CPU 0 instructions: 96000000 cycles: 235400971 heartbeat IPC: 0.449265 cumulative IPC: 0.372043 (Simulation time: 2 hr 44 min 56 sec) 
Heartbeat CPU 0 instructions: 97000002 cycles: 237914692 heartbeat IPC: 0.397817 cumulative IPC: 0.37232 (Simulation time: 2 hr 45 min 34 sec) 
Heartbeat CPU 0 instructions: 98000003 cycles: 241840479 heartbeat IPC: 0.254726 cumulative IPC: 0.370377 (Simulation time: 2 hr 46 min 20 sec) 
Heartbeat CPU 0 instructions: 99000000 cycles: 244713944 heartbeat IPC: 0.348011 cumulative IPC: 0.37011 (Simulation time: 2 hr 46 min 53 sec) 
Heartbeat CPU 0 instructions: 100000000 cycles: 246589663 heartbeat IPC: 0.533129 cumulative IPC: 0.371372 (Simulation time: 2 hr 47 min 25 sec) 
Heartbeat CPU 0 instructions: 101000001 cycles: 250418112 heartbeat IPC: 0.261203 cumulative IPC: 0.369658 (Simulation time: 2 hr 48 min 3 sec) 
Heartbeat CPU 0 instructions: 102000000 cycles: 252011889 heartbeat IPC: 0.62744 cumulative IPC: 0.371316 (Simulation time: 2 hr 48 min 23 sec) 
Heartbeat CPU 0 instructions: 103000001 cycles: 253310098 heartbeat IPC: 0.770293 cumulative IPC: 0.373396 (Simulation time: 2 hr 48 min 42 sec) 
Heartbeat CPU 0 instructions: 104000000 cycles: 256573478 heartbeat IPC: 0.30643 cumulative IPC: 0.37253 (Simulation time: 2 hr 49 min 12 sec) 
Heartbeat CPU 0 instructions: 105000003 cycles: 259628495 heartbeat IPC: 0.327331 cumulative IPC: 0.371989 (Simulation time: 2 hr 49 min 42 sec) 
Heartbeat CPU 0 instructions: 106000002 cycles: 262344194 heartbeat IPC: 0.368229 cumulative IPC: 0.37195 (Simulation time: 2 hr 50 min 7 sec) 
Heartbeat CPU 0 instructions: 107000000 cycles: 264054868 heartbeat IPC: 0.584564 cumulative IPC: 0.37335 (Simulation time: 2 hr 50 min 29 sec) 
Heartbeat CPU 0 instructions: 108000000 cycles: 267847717 heartbeat IPC: 0.263654 cumulative IPC: 0.371771 (Simulation time: 2 hr 50 min 54 sec) 
Heartbeat CPU 0 instructions: 109000000 cycles: 269733246 heartbeat IPC: 0.530355 cumulative IPC: 0.372898 (Simulation time: 2 hr 51 min 8 sec) 
Heartbeat CPU 0 instructions: 110000002 cycles: 271031887 heartbeat IPC: 0.770037 cumulative IPC: 0.374831 (Simulation time: 2 hr 51 min 21 sec) 
Finished CPU 0 instructions: 100000000 cycles: 266787144 cummulative IPC: 0.374831 (Simulation time: 2 hr 51 min 21 sec) 

ChampSim completed all CPUs

Region of Interest Statistics

CPU 0 cummulative IPC: 0.374831 instructions: 100000000 cycles: 266787144
LLC TOTAL     ACCESS:    8712330  HIT:    4656834  MISS:    4055496
LLC LOAD      ACCESS:    2236703  HIT:    1071245  MISS:    1165458
LLC RFO       ACCESS:     764908  HIT:     262194  MISS:     502714
LLC PREFETCH  ACCESS:    3550259  HIT:    1599395  MISS:    1950864
LLC WRITEBACK ACCESS:    2160460  HIT:    1724000  MISS:     436460
Insertion Distribution: 
	LOAD 344930 0 0 0 0 0 0 0 0 0 0 0 0 0 99416 836856 
	RFO 206477 0 0 0 0 0 0 0 0 0 0 0 0 0 88346 258488 
	PREF 0 102748 0 0 0 0 0 0 0 0 0 0 0 0 241703 1881910 
	WRITEBACK 0 0 0 0 0 0 0 0 0 0 0 0 0 0 0 536642 
Total Prefetch Downgrades: 126089
