
*** ChampSim Multicore Out-of-Order Simulator ***

Warmup Instructions: 10000000
Simulation Instructions: 100000000
Configuration: 2
Number of CPUs: 1
LLC sets: 2048
LLC ways: 16
Off-chip DRAM Channels: 1 Width: 64-bit Data Rate: 1600 MT/s

CPU 0 runs /datasets/cs240c-wi22-a00-public/data/Assignment2-gz/zeusmp_100B.trace.gz
CPU 0 L1D next line prefetcher
CPU 0 L2C IP-based stride prefetcher
Initialize SRRIP state
Heartbeat CPU 0 instructions: 1000002 cycles: 462677 heartbeat IPC: 2.16134 cumulative IPC: 2.16134 (Simulation time: 0 hr 1 min 28 sec) 
Heartbeat CPU 0 instructions: 2000001 cycles: 925467 heartbeat IPC: 2.16081 cumulative IPC: 2.16107 (Simulation time: 0 hr 2 min 59 sec) 
Heartbeat CPU 0 instructions: 3000003 cycles: 1388524 heartbeat IPC: 2.15957 cumulative IPC: 2.16057 (Simulation time: 0 hr 4 min 32 sec) 
Heartbeat CPU 0 instructions: 4000000 cycles: 1851251 heartbeat IPC: 2.16109 cumulative IPC: 2.1607 (Simulation time: 0 hr 6 min 8 sec) 
Heartbeat CPU 0 instructions: 5000003 cycles: 2314193 heartbeat IPC: 2.1601 cumulative IPC: 2.16058 (Simulation time: 0 hr 7 min 43 sec) 
Heartbeat CPU 0 instructions: 6000001 cycles: 2777071 heartbeat IPC: 2.16039 cumulative IPC: 2.16055 (Simulation time: 0 hr 9 min 17 sec) 
Heartbeat CPU 0 instructions: 7000001 cycles: 3239757 heartbeat IPC: 2.16129 cumulative IPC: 2.16066 (Simulation time: 0 hr 10 min 56 sec) 
Heartbeat CPU 0 instructions: 8000000 cycles: 3702614 heartbeat IPC: 2.16049 cumulative IPC: 2.16064 (Simulation time: 0 hr 12 min 31 sec) 
Heartbeat CPU 0 instructions: 9000003 cycles: 4165380 heartbeat IPC: 2.16093 cumulative IPC: 2.16067 (Simulation time: 0 hr 14 min 0 sec) 
Heartbeat CPU 0 instructions: 10000001 cycles: 4628712 heartbeat IPC: 2.15828 cumulative IPC: 2.16043 (Simulation time: 0 hr 15 min 39 sec) 

Warmup complete CPU 0 instructions: 10000001 cycles: 4628712 (Simulation time: 0 hr 15 min 39 sec) 

Heartbeat CPU 0 instructions: 11000000 cycles: 5326699 heartbeat IPC: 1.43269 cumulative IPC: 1.43269 (Simulation time: 0 hr 17 min 27 sec) 
Heartbeat CPU 0 instructions: 12000000 cycles: 6024230 heartbeat IPC: 1.43363 cumulative IPC: 1.43316 (Simulation time: 0 hr 19 min 7 sec) 
Heartbeat CPU 0 instructions: 13000001 cycles: 6752905 heartbeat IPC: 1.37236 cumulative IPC: 1.4123 (Simulation time: 0 hr 20 min 46 sec) 
Heartbeat CPU 0 instructions: 14000003 cycles: 7488969 heartbeat IPC: 1.35858 cumulative IPC: 1.39848 (Simulation time: 0 hr 22 min 24 sec) 
Heartbeat CPU 0 instructions: 15000002 cycles: 8214165 heartbeat IPC: 1.37894 cumulative IPC: 1.39452 (Simulation time: 0 hr 24 min 9 sec) 
Heartbeat CPU 0 instructions: 16000000 cycles: 8915245 heartbeat IPC: 1.42637 cumulative IPC: 1.39973 (Simulation time: 0 hr 25 min 54 sec) 
Heartbeat CPU 0 instructions: 17000003 cycles: 9691230 heartbeat IPC: 1.28869 cumulative IPC: 1.38271 (Simulation time: 0 hr 27 min 29 sec) 
Heartbeat CPU 0 instructions: 18000000 cycles: 10386011 heartbeat IPC: 1.4393 cumulative IPC: 1.38954 (Simulation time: 0 hr 29 min 5 sec) 
Heartbeat CPU 0 instructions: 19000002 cycles: 11080610 heartbeat IPC: 1.43968 cumulative IPC: 1.39494 (Simulation time: 0 hr 30 min 30 sec) 
Heartbeat CPU 0 instructions: 20000000 cycles: 11766219 heartbeat IPC: 1.45855 cumulative IPC: 1.40105 (Simulation time: 0 hr 31 min 55 sec) 
Heartbeat CPU 0 instructions: 21000001 cycles: 12474838 heartbeat IPC: 1.4112 cumulative IPC: 1.40197 (Simulation time: 0 hr 33 min 19 sec) 
Heartbeat CPU 0 instructions: 22000001 cycles: 13170293 heartbeat IPC: 1.43791 cumulative IPC: 1.40489 (Simulation time: 0 hr 34 min 44 sec) 
Heartbeat CPU 0 instructions: 23000002 cycles: 13885551 heartbeat IPC: 1.3981 cumulative IPC: 1.40437 (Simulation time: 0 hr 36 min 9 sec) 
Heartbeat CPU 0 instructions: 24000000 cycles: 14581557 heartbeat IPC: 1.43677 cumulative IPC: 1.40663 (Simulation time: 0 hr 37 min 37 sec) 
Heartbeat CPU 0 instructions: 25000001 cycles: 15289884 heartbeat IPC: 1.41178 cumulative IPC: 1.40697 (Simulation time: 0 hr 38 min 59 sec) 
Heartbeat CPU 0 instructions: 26000001 cycles: 15986701 heartbeat IPC: 1.4351 cumulative IPC: 1.4087 (Simulation time: 0 hr 40 min 25 sec) 
Heartbeat CPU 0 instructions: 27000000 cycles: 16700570 heartbeat IPC: 1.40082 cumulative IPC: 1.40823 (Simulation time: 0 hr 41 min 49 sec) 
Heartbeat CPU 0 instructions: 28000000 cycles: 17399726 heartbeat IPC: 1.4303 cumulative IPC: 1.40944 (Simulation time: 0 hr 43 min 14 sec) 
Heartbeat CPU 0 instructions: 29000000 cycles: 18093038 heartbeat IPC: 1.44235 cumulative IPC: 1.41114 (Simulation time: 0 hr 44 min 37 sec) 
Heartbeat CPU 0 instructions: 30000003 cycles: 18803479 heartbeat IPC: 1.40758 cumulative IPC: 1.41096 (Simulation time: 0 hr 45 min 59 sec) 
Heartbeat CPU 0 instructions: 31000000 cycles: 19498028 heartbeat IPC: 1.43978 cumulative IPC: 1.4123 (Simulation time: 0 hr 47 min 23 sec) 
Heartbeat CPU 0 instructions: 32000000 cycles: 20209769 heartbeat IPC: 1.40501 cumulative IPC: 1.41197 (Simulation time: 0 hr 48 min 46 sec) 
Heartbeat CPU 0 instructions: 33000002 cycles: 20904196 heartbeat IPC: 1.44004 cumulative IPC: 1.41317 (Simulation time: 0 hr 50 min 9 sec) 
Heartbeat CPU 0 instructions: 34000002 cycles: 21610786 heartbeat IPC: 1.41525 cumulative IPC: 1.41325 (Simulation time: 0 hr 51 min 33 sec) 
Heartbeat CPU 0 instructions: 35000003 cycles: 22306057 heartbeat IPC: 1.43829 cumulative IPC: 1.41424 (Simulation time: 0 hr 52 min 57 sec) 
Heartbeat CPU 0 instructions: 36000000 cycles: 23014638 heartbeat IPC: 1.41127 cumulative IPC: 1.41413 (Simulation time: 0 hr 54 min 19 sec) 
Heartbeat CPU 0 instructions: 37000001 cycles: 23712114 heartbeat IPC: 1.43374 cumulative IPC: 1.41484 (Simulation time: 0 hr 55 min 43 sec) 
Heartbeat CPU 0 instructions: 38000003 cycles: 24423328 heartbeat IPC: 1.40605 cumulative IPC: 1.41453 (Simulation time: 0 hr 57 min 6 sec) 
Heartbeat CPU 0 instructions: 39000001 cycles: 25120016 heartbeat IPC: 1.43536 cumulative IPC: 1.41523 (Simulation time: 0 hr 58 min 28 sec) 
Heartbeat CPU 0 instructions: 40000000 cycles: 25831322 heartbeat IPC: 1.40586 cumulative IPC: 1.41492 (Simulation time: 0 hr 59 min 53 sec) 
Heartbeat CPU 0 instructions: 41000002 cycles: 26530057 heartbeat IPC: 1.43116 cumulative IPC: 1.41544 (Simulation time: 1 hr 1 min 22 sec) 
Heartbeat CPU 0 instructions: 42000001 cycles: 27226044 heartbeat IPC: 1.43681 cumulative IPC: 1.4161 (Simulation time: 1 hr 2 min 47 sec) 
Heartbeat CPU 0 instructions: 43000003 cycles: 27938476 heartbeat IPC: 1.40365 cumulative IPC: 1.41572 (Simulation time: 1 hr 4 min 13 sec) 
Heartbeat CPU 0 instructions: 44000000 cycles: 28635923 heartbeat IPC: 1.4338 cumulative IPC: 1.41624 (Simulation time: 1 hr 5 min 42 sec) 
Heartbeat CPU 0 instructions: 45000001 cycles: 29346601 heartbeat IPC: 1.40711 cumulative IPC: 1.41598 (Simulation time: 1 hr 7 min 8 sec) 
Heartbeat CPU 0 instructions: 46000002 cycles: 30043791 heartbeat IPC: 1.43433 cumulative IPC: 1.41648 (Simulation time: 1 hr 8 min 29 sec) 
Heartbeat CPU 0 instructions: 47000003 cycles: 30752358 heartbeat IPC: 1.4113 cumulative IPC: 1.41634 (Simulation time: 1 hr 9 min 53 sec) 
Heartbeat CPU 0 instructions: 48000000 cycles: 31447643 heartbeat IPC: 1.43825 cumulative IPC: 1.41691 (Simulation time: 1 hr 11 min 18 sec) 
Heartbeat CPU 0 instructions: 49000001 cycles: 32158174 heartbeat IPC: 1.4074 cumulative IPC: 1.41666 (Simulation time: 1 hr 12 min 47 sec) 
Heartbeat CPU 0 instructions: 50000001 cycles: 32857668 heartbeat IPC: 1.4296 cumulative IPC: 1.41698 (Simulation time: 1 hr 14 min 14 sec) 
Heartbeat CPU 0 instructions: 51000002 cycles: 33566904 heartbeat IPC: 1.40997 cumulative IPC: 1.41681 (Simulation time: 1 hr 15 min 36 sec) 
Heartbeat CPU 0 instructions: 52000000 cycles: 34262508 heartbeat IPC: 1.4376 cumulative IPC: 1.4173 (Simulation time: 1 hr 17 min 1 sec) 
Heartbeat CPU 0 instructions: 53000001 cycles: 34975424 heartbeat IPC: 1.40269 cumulative IPC: 1.41696 (Simulation time: 1 hr 18 min 23 sec) 
Heartbeat CPU 0 instructions: 54000003 cycles: 35673631 heartbeat IPC: 1.43224 cumulative IPC: 1.4173 (Simulation time: 1 hr 19 min 47 sec) 
Heartbeat CPU 0 instructions: 55000003 cycles: 36376885 heartbeat IPC: 1.42196 cumulative IPC: 1.4174 (Simulation time: 1 hr 21 min 11 sec) 
Heartbeat CPU 0 instructions: 56000000 cycles: 37083642 heartbeat IPC: 1.41491 cumulative IPC: 1.41735 (Simulation time: 1 hr 22 min 35 sec) 
Heartbeat CPU 0 instructions: 57000003 cycles: 37778723 heartbeat IPC: 1.43869 cumulative IPC: 1.4178 (Simulation time: 1 hr 24 min 4 sec) 
Heartbeat CPU 0 instructions: 58000003 cycles: 38486304 heartbeat IPC: 1.41327 cumulative IPC: 1.4177 (Simulation time: 1 hr 25 min 29 sec) 
Heartbeat CPU 0 instructions: 59000000 cycles: 39185201 heartbeat IPC: 1.43082 cumulative IPC: 1.41797 (Simulation time: 1 hr 26 min 51 sec) 
Heartbeat CPU 0 instructions: 60000000 cycles: 39899120 heartbeat IPC: 1.40072 cumulative IPC: 1.41762 (Simulation time: 1 hr 28 min 10 sec) 
Heartbeat CPU 0 instructions: 61000000 cycles: 40598701 heartbeat IPC: 1.42943 cumulative IPC: 1.41785 (Simulation time: 1 hr 29 min 33 sec) 
Heartbeat CPU 0 instructions: 62000001 cycles: 41311400 heartbeat IPC: 1.40312 cumulative IPC: 1.41756 (Simulation time: 1 hr 30 min 58 sec) 
Heartbeat CPU 0 instructions: 63000001 cycles: 42011031 heartbeat IPC: 1.42932 cumulative IPC: 1.41778 (Simulation time: 1 hr 32 min 22 sec) 
Heartbeat CPU 0 instructions: 64000000 cycles: 42725566 heartbeat IPC: 1.39951 cumulative IPC: 1.41744 (Simulation time: 1 hr 33 min 45 sec) 
Heartbeat CPU 0 instructions: 65000003 cycles: 43423034 heartbeat IPC: 1.43376 cumulative IPC: 1.41773 (Simulation time: 1 hr 35 min 12 sec) 
Heartbeat CPU 0 instructions: 66000003 cycles: 44133611 heartbeat IPC: 1.40731 cumulative IPC: 1.41755 (Simulation time: 1 hr 36 min 34 sec) 
Heartbeat CPU 0 instructions: 67000000 cycles: 44831336 heartbeat IPC: 1.43323 cumulative IPC: 1.41782 (Simulation time: 1 hr 37 min 56 sec) 
Heartbeat CPU 0 instructions: 68000000 cycles: 45537815 heartbeat IPC: 1.41547 cumulative IPC: 1.41778 (Simulation time: 1 hr 39 min 24 sec) 
Heartbeat CPU 0 instructions: 69000000 cycles: 46239172 heartbeat IPC: 1.42581 cumulative IPC: 1.41791 (Simulation time: 1 hr 40 min 46 sec) 
Heartbeat CPU 0 instructions: 70000003 cycles: 46933959 heartbeat IPC: 1.43929 cumulative IPC: 1.41826 (Simulation time: 1 hr 42 min 7 sec) 
Heartbeat CPU 0 instructions: 71000003 cycles: 47645487 heartbeat IPC: 1.40543 cumulative IPC: 1.41805 (Simulation time: 1 hr 43 min 32 sec) 
Heartbeat CPU 0 instructions: 72000000 cycles: 48342580 heartbeat IPC: 1.43452 cumulative IPC: 1.41831 (Simulation time: 1 hr 44 min 54 sec) 
Heartbeat CPU 0 instructions: 73000003 cycles: 49054566 heartbeat IPC: 1.40453 cumulative IPC: 1.41809 (Simulation time: 1 hr 46 min 24 sec) 
Heartbeat CPU 0 instructions: 74000003 cycles: 49749658 heartbeat IPC: 1.43866 cumulative IPC: 1.41841 (Simulation time: 1 hr 47 min 46 sec) 
Heartbeat CPU 0 instructions: 75000003 cycles: 50457737 heartbeat IPC: 1.41227 cumulative IPC: 1.41832 (Simulation time: 1 hr 49 min 10 sec) 
Heartbeat CPU 0 instructions: 76000000 cycles: 51154985 heartbeat IPC: 1.43421 cumulative IPC: 1.41855 (Simulation time: 1 hr 50 min 37 sec) 
Heartbeat CPU 0 instructions: 77000000 cycles: 51871800 heartbeat IPC: 1.39506 cumulative IPC: 1.4182 (Simulation time: 1 hr 51 min 56 sec) 
Heartbeat CPU 0 instructions: 78000002 cycles: 52572536 heartbeat IPC: 1.42707 cumulative IPC: 1.41833 (Simulation time: 1 hr 53 min 23 sec) 
Heartbeat CPU 0 instructions: 79000000 cycles: 53282293 heartbeat IPC: 1.40893 cumulative IPC: 1.41819 (Simulation time: 1 hr 54 min 47 sec) 
Heartbeat CPU 0 instructions: 80000000 cycles: 53978431 heartbeat IPC: 1.4365 cumulative IPC: 1.41845 (Simulation time: 1 hr 56 min 12 sec) 
Heartbeat CPU 0 instructions: 81000003 cycles: 54692089 heartbeat IPC: 1.40124 cumulative IPC: 1.4182 (Simulation time: 1 hr 57 min 36 sec) 
Heartbeat CPU 0 instructions: 82000000 cycles: 55391592 heartbeat IPC: 1.42958 cumulative IPC: 1.41836 (Simulation time: 1 hr 59 min 2 sec) 
Heartbeat CPU 0 instructions: 83000002 cycles: 56087861 heartbeat IPC: 1.43623 cumulative IPC: 1.4186 (Simulation time: 2 hr 0 min 24 sec) 
Heartbeat CPU 0 instructions: 84000000 cycles: 56796154 heartbeat IPC: 1.41184 cumulative IPC: 1.41851 (Simulation time: 2 hr 1 min 47 sec) 
Heartbeat CPU 0 instructions: 85000001 cycles: 57490064 heartbeat IPC: 1.44111 cumulative IPC: 1.41881 (Simulation time: 2 hr 3 min 12 sec) 
Heartbeat CPU 0 instructions: 86000001 cycles: 58200194 heartbeat IPC: 1.40819 cumulative IPC: 1.41867 (Simulation time: 2 hr 4 min 35 sec) 
Heartbeat CPU 0 instructions: 87000001 cycles: 58902200 heartbeat IPC: 1.42449 cumulative IPC: 1.41874 (Simulation time: 2 hr 5 min 58 sec) 
Heartbeat CPU 0 instructions: 88000000 cycles: 59611133 heartbeat IPC: 1.41057 cumulative IPC: 1.41864 (Simulation time: 2 hr 7 min 22 sec) 
Heartbeat CPU 0 instructions: 89000003 cycles: 60306245 heartbeat IPC: 1.43862 cumulative IPC: 1.41888 (Simulation time: 2 hr 8 min 44 sec) 
Heartbeat CPU 0 instructions: 90000001 cycles: 61014758 heartbeat IPC: 1.4114 cumulative IPC: 1.41879 (Simulation time: 2 hr 10 min 11 sec) 
Heartbeat CPU 0 instructions: 91000003 cycles: 61716109 heartbeat IPC: 1.42582 cumulative IPC: 1.41888 (Simulation time: 2 hr 11 min 29 sec) 
Heartbeat CPU 0 instructions: 92000000 cycles: 62427218 heartbeat IPC: 1.40625 cumulative IPC: 1.41872 (Simulation time: 2 hr 12 min 49 sec) 
Heartbeat CPU 0 instructions: 93000001 cycles: 63125909 heartbeat IPC: 1.43125 cumulative IPC: 1.41887 (Simulation time: 2 hr 14 min 7 sec) 
Heartbeat CPU 0 instructions: 94000003 cycles: 63833880 heartbeat IPC: 1.41249 cumulative IPC: 1.4188 (Simulation time: 2 hr 15 min 26 sec) 
Heartbeat CPU 0 instructions: 95000003 cycles: 64534160 heartbeat IPC: 1.428 cumulative IPC: 1.4189 (Simulation time: 2 hr 16 min 42 sec) 
Heartbeat CPU 0 instructions: 96000000 cycles: 65236681 heartbeat IPC: 1.42344 cumulative IPC: 1.41896 (Simulation time: 2 hr 18 min 1 sec) 
Heartbeat CPU 0 instructions: 97000000 cycles: 65945547 heartbeat IPC: 1.4107 cumulative IPC: 1.41886 (Simulation time: 2 hr 19 min 21 sec) 
Heartbeat CPU 0 instructions: 98000001 cycles: 66641066 heartbeat IPC: 1.43778 cumulative IPC: 1.41907 (Simulation time: 2 hr 20 min 36 sec) 
Heartbeat CPU 0 instructions: 99000001 cycles: 67360882 heartbeat IPC: 1.38924 cumulative IPC: 1.41873 (Simulation time: 2 hr 21 min 54 sec) 
Heartbeat CPU 0 instructions: 100000000 cycles: 68067301 heartbeat IPC: 1.41559 cumulative IPC: 1.41869 (Simulation time: 2 hr 23 min 10 sec) 
Heartbeat CPU 0 instructions: 101000002 cycles: 68787423 heartbeat IPC: 1.38866 cumulative IPC: 1.41836 (Simulation time: 2 hr 24 min 26 sec) 
Heartbeat CPU 0 instructions: 102000003 cycles: 69496183 heartbeat IPC: 1.41092 cumulative IPC: 1.41828 (Simulation time: 2 hr 25 min 37 sec) 
Heartbeat CPU 0 instructions: 103000001 cycles: 70220722 heartbeat IPC: 1.38019 cumulative IPC: 1.41786 (Simulation time: 2 hr 26 min 40 sec) 
Heartbeat CPU 0 instructions: 104000000 cycles: 70929069 heartbeat IPC: 1.41174 cumulative IPC: 1.41779 (Simulation time: 2 hr 27 min 43 sec) 
Heartbeat CPU 0 instructions: 105000003 cycles: 71649445 heartbeat IPC: 1.38817 cumulative IPC: 1.41747 (Simulation time: 2 hr 28 min 42 sec) 
Heartbeat CPU 0 instructions: 106000002 cycles: 72354165 heartbeat IPC: 1.419 cumulative IPC: 1.41749 (Simulation time: 2 hr 29 min 43 sec) 
Heartbeat CPU 0 instructions: 107000000 cycles: 73070753 heartbeat IPC: 1.3955 cumulative IPC: 1.41726 (Simulation time: 2 hr 30 min 38 sec) 
Heartbeat CPU 0 instructions: 108000000 cycles: 73771832 heartbeat IPC: 1.42637 cumulative IPC: 1.41735 (Simulation time: 2 hr 31 min 29 sec) 
Heartbeat CPU 0 instructions: 109000002 cycles: 74467203 heartbeat IPC: 1.43808 cumulative IPC: 1.41756 (Simulation time: 2 hr 32 min 18 sec) 
Heartbeat CPU 0 instructions: 110000000 cycles: 75177846 heartbeat IPC: 1.40717 cumulative IPC: 1.41745 (Simulation time: 2 hr 33 min 6 sec) 
Finished CPU 0 instructions: 100000003 cycles: 70549135 cummulative IPC: 1.41745 (Simulation time: 2 hr 33 min 6 sec) 

ChampSim completed all CPUs

Region of Interest Statistics

CPU 0 cummulative IPC: 1.41745 instructions: 100000003 cycles: 70549135
LLC TOTAL     ACCESS:     832945  HIT:      63135  MISS:     769810
LLC LOAD      ACCESS:      26579  HIT:      10964  MISS:      15615
LLC RFO       ACCESS:     201479  HIT:       7947  MISS:     193532
LLC PREFETCH  ACCESS:     401811  HIT:      11697  MISS:     390114
LLC WRITEBACK ACCESS:     203076  HIT:      32527  MISS:     170549
Insertion Distribution: 
	LOAD 2935 0 0 0 0 0 0 0 0 0 0 0 0 0 3951 10873 
	RFO 4440 0 0 0 0 0 0 0 0 0 0 0 0 0 9616 191086 
	PREF 0 7505 0 0 0 0 0 0 0 0 0 0 0 0 32461 379571 
	WRITEBACK 0 0 0 0 0 0 0 0 0 0 0 0 0 0 0 171601 
Total Prefetch Downgrades: 5238
