
*** ChampSim Multicore Out-of-Order Simulator ***

Warmup Instructions: 10000000
Simulation Instructions: 100000000
Configuration: 2
Number of CPUs: 1
LLC sets: 2048
LLC ways: 16
Off-chip DRAM Channels: 1 Width: 64-bit Data Rate: 1600 MT/s

CPU 0 runs /datasets/cs240c-wi22-a00-public/data/Assignment2-gz/libquantum_964B.trace.gz
CPU 0 L1D next line prefetcher
CPU 0 L2C IP-based stride prefetcher
Initialize SRRIP state
Heartbeat CPU 0 instructions: 1000002 cycles: 333341 heartbeat IPC: 2.99994 cumulative IPC: 2.99994 (Simulation time: 0 hr 0 min 55 sec) 
Heartbeat CPU 0 instructions: 2000001 cycles: 666674 heartbeat IPC: 3 cumulative IPC: 2.99997 (Simulation time: 0 hr 1 min 45 sec) 
Heartbeat CPU 0 instructions: 3000000 cycles: 1000007 heartbeat IPC: 3 cumulative IPC: 2.99998 (Simulation time: 0 hr 2 min 37 sec) 
Heartbeat CPU 0 instructions: 4000000 cycles: 1333341 heartbeat IPC: 2.99999 cumulative IPC: 2.99998 (Simulation time: 0 hr 3 min 30 sec) 
Heartbeat CPU 0 instructions: 5000000 cycles: 1666674 heartbeat IPC: 3 cumulative IPC: 2.99999 (Simulation time: 0 hr 4 min 21 sec) 
Heartbeat CPU 0 instructions: 6000002 cycles: 2000008 heartbeat IPC: 3 cumulative IPC: 2.99999 (Simulation time: 0 hr 5 min 10 sec) 
Heartbeat CPU 0 instructions: 7000001 cycles: 2331518 heartbeat IPC: 3.0165 cumulative IPC: 3.00234 (Simulation time: 0 hr 6 min 3 sec) 
Heartbeat CPU 0 instructions: 8000000 cycles: 2662240 heartbeat IPC: 3.02368 cumulative IPC: 3.00499 (Simulation time: 0 hr 6 min 53 sec) 
Heartbeat CPU 0 instructions: 9000001 cycles: 2992962 heartbeat IPC: 3.02369 cumulative IPC: 3.00705 (Simulation time: 0 hr 7 min 44 sec) 
Heartbeat CPU 0 instructions: 10000001 cycles: 3323684 heartbeat IPC: 3.02369 cumulative IPC: 3.00871 (Simulation time: 0 hr 8 min 35 sec) 

Warmup complete CPU 0 instructions: 10000001 cycles: 3323684 (Simulation time: 0 hr 8 min 35 sec) 

Heartbeat CPU 0 instructions: 11000000 cycles: 5060059 heartbeat IPC: 0.575912 cumulative IPC: 0.575912 (Simulation time: 0 hr 9 min 58 sec) 
Heartbeat CPU 0 instructions: 12000000 cycles: 6808477 heartbeat IPC: 0.571946 cumulative IPC: 0.573922 (Simulation time: 0 hr 11 min 23 sec) 
Heartbeat CPU 0 instructions: 13000001 cycles: 8552271 heartbeat IPC: 0.573463 cumulative IPC: 0.573769 (Simulation time: 0 hr 12 min 44 sec) 
Heartbeat CPU 0 instructions: 14000000 cycles: 10294197 heartbeat IPC: 0.574077 cumulative IPC: 0.573846 (Simulation time: 0 hr 14 min 4 sec) 
Heartbeat CPU 0 instructions: 15000003 cycles: 12041297 heartbeat IPC: 0.572379 cumulative IPC: 0.573552 (Simulation time: 0 hr 15 min 27 sec) 
Heartbeat CPU 0 instructions: 16000000 cycles: 13781303 heartbeat IPC: 0.574709 cumulative IPC: 0.573744 (Simulation time: 0 hr 16 min 50 sec) 
Heartbeat CPU 0 instructions: 17000000 cycles: 15531627 heartbeat IPC: 0.571323 cumulative IPC: 0.573397 (Simulation time: 0 hr 18 min 12 sec) 
Heartbeat CPU 0 instructions: 18000003 cycles: 17268988 heartbeat IPC: 0.575587 cumulative IPC: 0.57367 (Simulation time: 0 hr 19 min 29 sec) 
Heartbeat CPU 0 instructions: 19000002 cycles: 19001617 heartbeat IPC: 0.577157 cumulative IPC: 0.574055 (Simulation time: 0 hr 20 min 42 sec) 
Heartbeat CPU 0 instructions: 20000000 cycles: 20218482 heartbeat IPC: 0.821782 cumulative IPC: 0.591898 (Simulation time: 0 hr 21 min 49 sec) 
Heartbeat CPU 0 instructions: 21000003 cycles: 21951066 heartbeat IPC: 0.577174 cumulative IPC: 0.590529 (Simulation time: 0 hr 23 min 3 sec) 
Heartbeat CPU 0 instructions: 22000002 cycles: 23697773 heartbeat IPC: 0.572505 cumulative IPC: 0.588983 (Simulation time: 0 hr 24 min 20 sec) 
Heartbeat CPU 0 instructions: 23000000 cycles: 25439296 heartbeat IPC: 0.574209 cumulative IPC: 0.58782 (Simulation time: 0 hr 25 min 36 sec) 
Heartbeat CPU 0 instructions: 24000000 cycles: 27192599 heartbeat IPC: 0.570352 cumulative IPC: 0.586537 (Simulation time: 0 hr 26 min 52 sec) 
Heartbeat CPU 0 instructions: 25000000 cycles: 28933991 heartbeat IPC: 0.574253 cumulative IPC: 0.585702 (Simulation time: 0 hr 28 min 7 sec) 
Heartbeat CPU 0 instructions: 26000002 cycles: 30915588 heartbeat IPC: 0.504645 cumulative IPC: 0.57988 (Simulation time: 0 hr 29 min 41 sec) 
Heartbeat CPU 0 instructions: 27000002 cycles: 33277360 heartbeat IPC: 0.423411 cumulative IPC: 0.567543 (Simulation time: 0 hr 31 min 24 sec) 
Heartbeat CPU 0 instructions: 28000000 cycles: 35633717 heartbeat IPC: 0.424383 cumulative IPC: 0.557102 (Simulation time: 0 hr 33 min 9 sec) 
Heartbeat CPU 0 instructions: 29000002 cycles: 38000751 heartbeat IPC: 0.42247 cumulative IPC: 0.547913 (Simulation time: 0 hr 34 min 50 sec) 
Heartbeat CPU 0 instructions: 30000002 cycles: 40366563 heartbeat IPC: 0.422688 cumulative IPC: 0.539915 (Simulation time: 0 hr 36 min 34 sec) 
Heartbeat CPU 0 instructions: 31000002 cycles: 42730034 heartbeat IPC: 0.423107 cumulative IPC: 0.532909 (Simulation time: 0 hr 38 min 19 sec) 
Heartbeat CPU 0 instructions: 32000000 cycles: 45083264 heartbeat IPC: 0.424947 cumulative IPC: 0.526825 (Simulation time: 0 hr 40 min 9 sec) 
Heartbeat CPU 0 instructions: 33000002 cycles: 47044412 heartbeat IPC: 0.509906 cumulative IPC: 0.526066 (Simulation time: 0 hr 41 min 43 sec) 
Heartbeat CPU 0 instructions: 34000002 cycles: 49392871 heartbeat IPC: 0.425811 cumulative IPC: 0.520956 (Simulation time: 0 hr 43 min 24 sec) 
Heartbeat CPU 0 instructions: 35000002 cycles: 51752893 heartbeat IPC: 0.423725 cumulative IPC: 0.516217 (Simulation time: 0 hr 45 min 7 sec) 
Heartbeat CPU 0 instructions: 36000000 cycles: 53880264 heartbeat IPC: 0.470063 cumulative IPC: 0.514275 (Simulation time: 0 hr 46 min 42 sec) 
Heartbeat CPU 0 instructions: 37000001 cycles: 55643007 heartbeat IPC: 0.567298 cumulative IPC: 0.516062 (Simulation time: 0 hr 48 min 9 sec) 
Heartbeat CPU 0 instructions: 38000000 cycles: 57144400 heartbeat IPC: 0.666047 cumulative IPC: 0.520246 (Simulation time: 0 hr 49 min 33 sec) 
Heartbeat CPU 0 instructions: 39000003 cycles: 58610566 heartbeat IPC: 0.682053 cumulative IPC: 0.524537 (Simulation time: 0 hr 50 min 58 sec) 
Heartbeat CPU 0 instructions: 40000000 cycles: 60076648 heartbeat IPC: 0.682088 cumulative IPC: 0.528607 (Simulation time: 0 hr 52 min 22 sec) 
Heartbeat CPU 0 instructions: 41000001 cycles: 61542868 heartbeat IPC: 0.682027 cumulative IPC: 0.532471 (Simulation time: 0 hr 53 min 45 sec) 
Heartbeat CPU 0 instructions: 42000000 cycles: 63008958 heartbeat IPC: 0.682086 cumulative IPC: 0.536146 (Simulation time: 0 hr 55 min 7 sec) 
Heartbeat CPU 0 instructions: 43000001 cycles: 64475121 heartbeat IPC: 0.682053 cumulative IPC: 0.539644 (Simulation time: 0 hr 56 min 29 sec) 
Heartbeat CPU 0 instructions: 44000000 cycles: 65941204 heartbeat IPC: 0.682089 cumulative IPC: 0.542979 (Simulation time: 0 hr 57 min 50 sec) 
Heartbeat CPU 0 instructions: 45000002 cycles: 67407311 heartbeat IPC: 0.68208 cumulative IPC: 0.546161 (Simulation time: 0 hr 59 min 14 sec) 
Heartbeat CPU 0 instructions: 46000001 cycles: 68873492 heartbeat IPC: 0.682043 cumulative IPC: 0.549201 (Simulation time: 1 hr 0 min 38 sec) 
Heartbeat CPU 0 instructions: 47000000 cycles: 70339582 heartbeat IPC: 0.682086 cumulative IPC: 0.552108 (Simulation time: 1 hr 2 min 6 sec) 
Heartbeat CPU 0 instructions: 48000000 cycles: 71805746 heartbeat IPC: 0.682052 cumulative IPC: 0.55489 (Simulation time: 1 hr 3 min 30 sec) 
Heartbeat CPU 0 instructions: 49000000 cycles: 73282859 heartbeat IPC: 0.676996 cumulative IPC: 0.557468 (Simulation time: 1 hr 4 min 56 sec) 
Heartbeat CPU 0 instructions: 50000001 cycles: 74743140 heartbeat IPC: 0.6848 cumulative IPC: 0.560071 (Simulation time: 1 hr 6 min 22 sec) 
Heartbeat CPU 0 instructions: 51000000 cycles: 76209230 heartbeat IPC: 0.682086 cumulative IPC: 0.562526 (Simulation time: 1 hr 7 min 45 sec) 
Heartbeat CPU 0 instructions: 52000000 cycles: 77675495 heartbeat IPC: 0.682005 cumulative IPC: 0.564882 (Simulation time: 1 hr 9 min 8 sec) 
Heartbeat CPU 0 instructions: 53000000 cycles: 79141701 heartbeat IPC: 0.682032 cumulative IPC: 0.567147 (Simulation time: 1 hr 10 min 36 sec) 
Heartbeat CPU 0 instructions: 54000002 cycles: 80607787 heartbeat IPC: 0.68209 cumulative IPC: 0.569328 (Simulation time: 1 hr 11 min 59 sec) 
Heartbeat CPU 0 instructions: 55000002 cycles: 82068313 heartbeat IPC: 0.684685 cumulative IPC: 0.571468 (Simulation time: 1 hr 13 min 22 sec) 
Heartbeat CPU 0 instructions: 56000000 cycles: 83608094 heartbeat IPC: 0.649442 cumulative IPC: 0.572963 (Simulation time: 1 hr 14 min 40 sec) 
Heartbeat CPU 0 instructions: 57000001 cycles: 85357321 heartbeat IPC: 0.571682 cumulative IPC: 0.572936 (Simulation time: 1 hr 16 min 2 sec) 
Heartbeat CPU 0 instructions: 58000000 cycles: 87106789 heartbeat IPC: 0.571602 cumulative IPC: 0.572908 (Simulation time: 1 hr 17 min 18 sec) 
Heartbeat CPU 0 instructions: 59000003 cycles: 88857629 heartbeat IPC: 0.571156 cumulative IPC: 0.572872 (Simulation time: 1 hr 18 min 34 sec) 
Heartbeat CPU 0 instructions: 60000000 cycles: 90605049 heartbeat IPC: 0.572271 cumulative IPC: 0.57286 (Simulation time: 1 hr 19 min 55 sec) 
Heartbeat CPU 0 instructions: 61000002 cycles: 92355063 heartbeat IPC: 0.571425 cumulative IPC: 0.572832 (Simulation time: 1 hr 21 min 12 sec) 
Heartbeat CPU 0 instructions: 62000001 cycles: 94108172 heartbeat IPC: 0.570415 cumulative IPC: 0.572785 (Simulation time: 1 hr 22 min 27 sec) 
Heartbeat CPU 0 instructions: 63000001 cycles: 95856105 heartbeat IPC: 0.572104 cumulative IPC: 0.572772 (Simulation time: 1 hr 23 min 44 sec) 
Heartbeat CPU 0 instructions: 64000000 cycles: 97611241 heartbeat IPC: 0.569756 cumulative IPC: 0.572716 (Simulation time: 1 hr 25 min 6 sec) 
Heartbeat CPU 0 instructions: 65000002 cycles: 99363126 heartbeat IPC: 0.570815 cumulative IPC: 0.572681 (Simulation time: 1 hr 26 min 24 sec) 
Heartbeat CPU 0 instructions: 66000002 cycles: 101110438 heartbeat IPC: 0.572308 cumulative IPC: 0.572675 (Simulation time: 1 hr 27 min 39 sec) 
Heartbeat CPU 0 instructions: 67000000 cycles: 102860366 heartbeat IPC: 0.571451 cumulative IPC: 0.572653 (Simulation time: 1 hr 28 min 54 sec) 
Heartbeat CPU 0 instructions: 68000000 cycles: 104605168 heartbeat IPC: 0.573131 cumulative IPC: 0.572661 (Simulation time: 1 hr 30 min 9 sec) 
Heartbeat CPU 0 instructions: 69000000 cycles: 106317345 heartbeat IPC: 0.584052 cumulative IPC: 0.572851 (Simulation time: 1 hr 31 min 24 sec) 
Heartbeat CPU 0 instructions: 70000002 cycles: 108064136 heartbeat IPC: 0.572479 cumulative IPC: 0.572845 (Simulation time: 1 hr 32 min 41 sec) 
Heartbeat CPU 0 instructions: 71000001 cycles: 109816622 heartbeat IPC: 0.570617 cumulative IPC: 0.572808 (Simulation time: 1 hr 33 min 56 sec) 
Heartbeat CPU 0 instructions: 72000000 cycles: 111566036 heartbeat IPC: 0.571619 cumulative IPC: 0.572789 (Simulation time: 1 hr 35 min 16 sec) 
Heartbeat CPU 0 instructions: 73000000 cycles: 113316829 heartbeat IPC: 0.57117 cumulative IPC: 0.572763 (Simulation time: 1 hr 36 min 29 sec) 
Heartbeat CPU 0 instructions: 74000000 cycles: 115051380 heartbeat IPC: 0.576518 cumulative IPC: 0.572821 (Simulation time: 1 hr 37 min 47 sec) 
Heartbeat CPU 0 instructions: 75000000 cycles: 117112043 heartbeat IPC: 0.485281 cumulative IPC: 0.571236 (Simulation time: 1 hr 39 min 26 sec) 
Heartbeat CPU 0 instructions: 76000000 cycles: 119453023 heartbeat IPC: 0.427172 cumulative IPC: 0.568332 (Simulation time: 1 hr 41 min 11 sec) 
Heartbeat CPU 0 instructions: 77000000 cycles: 121789684 heartbeat IPC: 0.427961 cumulative IPC: 0.565563 (Simulation time: 1 hr 42 min 58 sec) 
Heartbeat CPU 0 instructions: 78000000 cycles: 124152482 heartbeat IPC: 0.423227 cumulative IPC: 0.56278 (Simulation time: 1 hr 44 min 43 sec) 
Heartbeat CPU 0 instructions: 79000000 cycles: 126483058 heartbeat IPC: 0.429078 cumulative IPC: 0.56025 (Simulation time: 1 hr 46 min 30 sec) 
Heartbeat CPU 0 instructions: 80000000 cycles: 128830904 heartbeat IPC: 0.425922 cumulative IPC: 0.557737 (Simulation time: 1 hr 48 min 14 sec) 
Heartbeat CPU 0 instructions: 81000000 cycles: 131157287 heartbeat IPC: 0.429852 cumulative IPC: 0.555409 (Simulation time: 1 hr 49 min 55 sec) 
Heartbeat CPU 0 instructions: 82000000 cycles: 133427402 heartbeat IPC: 0.440506 cumulative IPC: 0.553405 (Simulation time: 1 hr 51 min 39 sec) 
Heartbeat CPU 0 instructions: 83000000 cycles: 135773973 heartbeat IPC: 0.426154 cumulative IPC: 0.55115 (Simulation time: 1 hr 53 min 22 sec) 
Heartbeat CPU 0 instructions: 84000000 cycles: 138124169 heartbeat IPC: 0.425496 cumulative IPC: 0.548959 (Simulation time: 1 hr 55 min 7 sec) 
Heartbeat CPU 0 instructions: 85000001 cycles: 139738123 heartbeat IPC: 0.619597 cumulative IPC: 0.549795 (Simulation time: 1 hr 56 min 39 sec) 
Heartbeat CPU 0 instructions: 86000000 cycles: 141263313 heartbeat IPC: 0.655655 cumulative IPC: 0.550966 (Simulation time: 1 hr 58 min 4 sec) 
Heartbeat CPU 0 instructions: 87000003 cycles: 142773241 heartbeat IPC: 0.662285 cumulative IPC: 0.552171 (Simulation time: 1 hr 59 min 24 sec) 
Heartbeat CPU 0 instructions: 88000000 cycles: 144283233 heartbeat IPC: 0.662253 cumulative IPC: 0.55335 (Simulation time: 2 hr 0 min 46 sec) 
Heartbeat CPU 0 instructions: 89000001 cycles: 145793280 heartbeat IPC: 0.662232 cumulative IPC: 0.554504 (Simulation time: 2 hr 2 min 12 sec) 
Heartbeat CPU 0 instructions: 90000000 cycles: 147303400 heartbeat IPC: 0.662198 cumulative IPC: 0.555634 (Simulation time: 2 hr 3 min 38 sec) 
Heartbeat CPU 0 instructions: 91000001 cycles: 148813323 heartbeat IPC: 0.662286 cumulative IPC: 0.556741 (Simulation time: 2 hr 5 min 5 sec) 
Heartbeat CPU 0 instructions: 92000000 cycles: 150323431 heartbeat IPC: 0.662204 cumulative IPC: 0.557824 (Simulation time: 2 hr 6 min 30 sec) 
Heartbeat CPU 0 instructions: 93000002 cycles: 151833585 heartbeat IPC: 0.662185 cumulative IPC: 0.558885 (Simulation time: 2 hr 7 min 52 sec) 
Heartbeat CPU 0 instructions: 94000001 cycles: 153343505 heartbeat IPC: 0.662286 cumulative IPC: 0.559926 (Simulation time: 2 hr 9 min 12 sec) 
Heartbeat CPU 0 instructions: 95000000 cycles: 154853429 heartbeat IPC: 0.662284 cumulative IPC: 0.560946 (Simulation time: 2 hr 10 min 38 sec) 
Heartbeat CPU 0 instructions: 96000000 cycles: 156363423 heartbeat IPC: 0.662254 cumulative IPC: 0.561946 (Simulation time: 2 hr 11 min 59 sec) 
Heartbeat CPU 0 instructions: 97000002 cycles: 157870212 heartbeat IPC: 0.663664 cumulative IPC: 0.562937 (Simulation time: 2 hr 13 min 20 sec) 
Heartbeat CPU 0 instructions: 98000001 cycles: 159336150 heartbeat IPC: 0.682156 cumulative IPC: 0.564057 (Simulation time: 2 hr 14 min 38 sec) 
Heartbeat CPU 0 instructions: 99000000 cycles: 160846615 heartbeat IPC: 0.662047 cumulative IPC: 0.564997 (Simulation time: 2 hr 15 min 55 sec) 
Heartbeat CPU 0 instructions: 100000000 cycles: 162356536 heartbeat IPC: 0.662286 cumulative IPC: 0.565921 (Simulation time: 2 hr 17 min 10 sec) 
Heartbeat CPU 0 instructions: 101000000 cycles: 163866581 heartbeat IPC: 0.662232 cumulative IPC: 0.566827 (Simulation time: 2 hr 18 min 28 sec) 
Heartbeat CPU 0 instructions: 102000002 cycles: 165376504 heartbeat IPC: 0.662287 cumulative IPC: 0.567716 (Simulation time: 2 hr 19 min 49 sec) 
Heartbeat CPU 0 instructions: 103000001 cycles: 166885216 heartbeat IPC: 0.662816 cumulative IPC: 0.568593 (Simulation time: 2 hr 21 min 7 sec) 
Heartbeat CPU 0 instructions: 104000000 cycles: 168633563 heartbeat IPC: 0.571968 cumulative IPC: 0.568629 (Simulation time: 2 hr 22 min 30 sec) 
Heartbeat CPU 0 instructions: 105000000 cycles: 170976468 heartbeat IPC: 0.426821 cumulative IPC: 0.566647 (Simulation time: 2 hr 24 min 3 sec) 
Heartbeat CPU 0 instructions: 106000000 cycles: 173329164 heartbeat IPC: 0.425044 cumulative IPC: 0.564688 (Simulation time: 2 hr 25 min 32 sec) 
Heartbeat CPU 0 instructions: 107000000 cycles: 175686137 heartbeat IPC: 0.424273 cumulative IPC: 0.562768 (Simulation time: 2 hr 26 min 56 sec) 
Heartbeat CPU 0 instructions: 108000000 cycles: 178046012 heartbeat IPC: 0.423751 cumulative IPC: 0.56089 (Simulation time: 2 hr 28 min 13 sec) 
Heartbeat CPU 0 instructions: 109000000 cycles: 180394243 heartbeat IPC: 0.425852 cumulative IPC: 0.559099 (Simulation time: 2 hr 29 min 20 sec) 
Heartbeat CPU 0 instructions: 110000000 cycles: 182728216 heartbeat IPC: 0.428454 cumulative IPC: 0.5574 (Simulation time: 2 hr 30 min 31 sec) 
Finished CPU 0 instructions: 100000003 cycles: 179404533 cummulative IPC: 0.5574 (Simulation time: 2 hr 30 min 31 sec) 

ChampSim completed all CPUs

Region of Interest Statistics

CPU 0 cummulative IPC: 0.5574 instructions: 100000003 cycles: 179404533
LLC TOTAL     ACCESS:    4917133  HIT:     277375  MISS:    4639758
LLC LOAD      ACCESS:    1164439  HIT:      63496  MISS:    1100943
LLC RFO       ACCESS:         24  HIT:         24  MISS:          0
LLC PREFETCH  ACCESS:    2225972  HIT:      91954  MISS:    2134018
LLC WRITEBACK ACCESS:    1526698  HIT:     121901  MISS:    1404797
Insertion Distribution: 
	LOAD 1477 0 0 0 0 0 0 0 0 0 0 0 0 0 11077 1092737 
	RFO 0 0 0 0 0 0 0 0 0 0 0 0 0 0 4 0 
	PREF 0 19375 0 0 0 0 0 0 0 0 0 0 0 0 60991 2326302 
	WRITEBACK 0 0 0 0 0 0 0 0 0 0 0 0 0 0 0 1417860 
Total Prefetch Downgrades: 39240
