
*** ChampSim Multicore Out-of-Order Simulator ***

Warmup Instructions: 10000000
Simulation Instructions: 100000000
Configuration: 2
Number of CPUs: 1
LLC sets: 2048
LLC ways: 16
Off-chip DRAM Channels: 1 Width: 64-bit Data Rate: 1600 MT/s

CPU 0 runs /datasets/cs240c-wi22-a00-public/data/Assignment2-gz/mcf_46B.trace.gz
CPU 0 L1D next line prefetcher
CPU 0 L2C IP-based stride prefetcher
Initialize SRRIP state
Heartbeat CPU 0 instructions: 1000002 cycles: 492175 heartbeat IPC: 2.0318 cumulative IPC: 2.0318 (Simulation time: 0 hr 2 min 7 sec) 
Heartbeat CPU 0 instructions: 2000002 cycles: 987157 heartbeat IPC: 2.02028 cumulative IPC: 2.02602 (Simulation time: 0 hr 4 min 15 sec) 
Heartbeat CPU 0 instructions: 3000003 cycles: 1513402 heartbeat IPC: 1.90026 cumulative IPC: 1.98229 (Simulation time: 0 hr 6 min 26 sec) 
Heartbeat CPU 0 instructions: 4000000 cycles: 2032249 heartbeat IPC: 1.92734 cumulative IPC: 1.96826 (Simulation time: 0 hr 8 min 42 sec) 
Heartbeat CPU 0 instructions: 5000000 cycles: 2525115 heartbeat IPC: 2.02895 cumulative IPC: 1.98011 (Simulation time: 0 hr 10 min 55 sec) 
Heartbeat CPU 0 instructions: 6000002 cycles: 3027903 heartbeat IPC: 1.98891 cumulative IPC: 1.98157 (Simulation time: 0 hr 13 min 5 sec) 
Heartbeat CPU 0 instructions: 7000001 cycles: 3575939 heartbeat IPC: 1.8247 cumulative IPC: 1.95753 (Simulation time: 0 hr 15 min 19 sec) 
Heartbeat CPU 0 instructions: 8000000 cycles: 4065860 heartbeat IPC: 2.04114 cumulative IPC: 1.9676 (Simulation time: 0 hr 17 min 32 sec) 
Heartbeat CPU 0 instructions: 9000001 cycles: 4548810 heartbeat IPC: 2.07061 cumulative IPC: 1.97854 (Simulation time: 0 hr 19 min 37 sec) 
Heartbeat CPU 0 instructions: 10000001 cycles: 5085963 heartbeat IPC: 1.86167 cumulative IPC: 1.9662 (Simulation time: 0 hr 21 min 41 sec) 

Warmup complete CPU 0 instructions: 10000001 cycles: 5085963 (Simulation time: 0 hr 21 min 41 sec) 

Heartbeat CPU 0 instructions: 11000002 cycles: 16184415 heartbeat IPC: 0.0901027 cumulative IPC: 0.0901027 (Simulation time: 0 hr 25 min 29 sec) 
Heartbeat CPU 0 instructions: 12000000 cycles: 20583771 heartbeat IPC: 0.227306 cumulative IPC: 0.12905 (Simulation time: 0 hr 28 min 13 sec) 
Heartbeat CPU 0 instructions: 13000000 cycles: 27835040 heartbeat IPC: 0.137907 cumulative IPC: 0.131873 (Simulation time: 0 hr 31 min 22 sec) 
Heartbeat CPU 0 instructions: 14000003 cycles: 42115956 heartbeat IPC: 0.0700237 cumulative IPC: 0.108021 (Simulation time: 0 hr 35 min 38 sec) 
Heartbeat CPU 0 instructions: 15000000 cycles: 46334753 heartbeat IPC: 0.237034 cumulative IPC: 0.121216 (Simulation time: 0 hr 38 min 28 sec) 
Heartbeat CPU 0 instructions: 16000000 cycles: 50282041 heartbeat IPC: 0.253338 cumulative IPC: 0.132755 (Simulation time: 0 hr 41 min 26 sec) 
Heartbeat CPU 0 instructions: 17000002 cycles: 65854821 heartbeat IPC: 0.0642147 cumulative IPC: 0.115191 (Simulation time: 0 hr 46 min 3 sec) 
Heartbeat CPU 0 instructions: 18000001 cycles: 71210221 heartbeat IPC: 0.186727 cumulative IPC: 0.120984 (Simulation time: 0 hr 48 min 59 sec) 
Heartbeat CPU 0 instructions: 19000001 cycles: 75864788 heartbeat IPC: 0.214843 cumulative IPC: 0.127157 (Simulation time: 0 hr 51 min 20 sec) 
Heartbeat CPU 0 instructions: 20000000 cycles: 88094684 heartbeat IPC: 0.0817668 cumulative IPC: 0.120469 (Simulation time: 0 hr 54 min 27 sec) 
Heartbeat CPU 0 instructions: 21000002 cycles: 104121007 heartbeat IPC: 0.0623975 cumulative IPC: 0.111072 (Simulation time: 0 hr 58 min 14 sec) 
Heartbeat CPU 0 instructions: 22000002 cycles: 108287122 heartbeat IPC: 0.240032 cumulative IPC: 0.116278 (Simulation time: 1 hr 0 min 26 sec) 
Heartbeat CPU 0 instructions: 23000001 cycles: 112258758 heartbeat IPC: 0.251785 cumulative IPC: 0.121299 (Simulation time: 1 hr 2 min 43 sec) 
Heartbeat CPU 0 instructions: 24000000 cycles: 125365018 heartbeat IPC: 0.0762993 cumulative IPC: 0.116396 (Simulation time: 1 hr 6 min 2 sec) 
Heartbeat CPU 0 instructions: 25000002 cycles: 133176848 heartbeat IPC: 0.128011 cumulative IPC: 0.117104 (Simulation time: 1 hr 8 min 48 sec) 
Heartbeat CPU 0 instructions: 26000001 cycles: 137110077 heartbeat IPC: 0.254244 cumulative IPC: 0.12119 (Simulation time: 1 hr 11 min 2 sec) 
Heartbeat CPU 0 instructions: 27000000 cycles: 146792672 heartbeat IPC: 0.103278 cumulative IPC: 0.119966 (Simulation time: 1 hr 14 min 0 sec) 
Heartbeat CPU 0 instructions: 28000000 cycles: 158193803 heartbeat IPC: 0.0877106 cumulative IPC: 0.117564 (Simulation time: 1 hr 17 min 11 sec) 
Heartbeat CPU 0 instructions: 29000001 cycles: 162514971 heartbeat IPC: 0.231419 cumulative IPC: 0.120689 (Simulation time: 1 hr 19 min 27 sec) 
Heartbeat CPU 0 instructions: 30000000 cycles: 169705447 heartbeat IPC: 0.139073 cumulative IPC: 0.121492 (Simulation time: 1 hr 22 min 2 sec) 
Heartbeat CPU 0 instructions: 31000002 cycles: 183386815 heartbeat IPC: 0.0730923 cumulative IPC: 0.117778 (Simulation time: 1 hr 25 min 28 sec) 
Heartbeat CPU 0 instructions: 32000000 cycles: 187802985 heartbeat IPC: 0.22644 cumulative IPC: 0.120405 (Simulation time: 1 hr 27 min 40 sec) 
Heartbeat CPU 0 instructions: 33000000 cycles: 194147558 heartbeat IPC: 0.157615 cumulative IPC: 0.121653 (Simulation time: 1 hr 30 min 1 sec) 
Heartbeat CPU 0 instructions: 34000000 cycles: 209081535 heartbeat IPC: 0.0669614 cumulative IPC: 0.11765 (Simulation time: 1 hr 33 min 28 sec) 
Heartbeat CPU 0 instructions: 35000000 cycles: 215137993 heartbeat IPC: 0.165113 cumulative IPC: 0.119018 (Simulation time: 1 hr 35 min 58 sec) 
Heartbeat CPU 0 instructions: 36000000 cycles: 221134344 heartbeat IPC: 0.166768 cumulative IPC: 0.120343 (Simulation time: 1 hr 38 min 25 sec) 
Heartbeat CPU 0 instructions: 37000002 cycles: 231025960 heartbeat IPC: 0.101096 cumulative IPC: 0.119501 (Simulation time: 1 hr 41 min 26 sec) 
Heartbeat CPU 0 instructions: 38000000 cycles: 242074952 heartbeat IPC: 0.0905058 cumulative IPC: 0.118149 (Simulation time: 1 hr 44 min 36 sec) 
Heartbeat CPU 0 instructions: 39000000 cycles: 246211192 heartbeat IPC: 0.241765 cumulative IPC: 0.120269 (Simulation time: 1 hr 46 min 47 sec) 
Heartbeat CPU 0 instructions: 40000000 cycles: 252006797 heartbeat IPC: 0.172545 cumulative IPC: 0.121496 (Simulation time: 1 hr 49 min 5 sec) 
Heartbeat CPU 0 instructions: 41000000 cycles: 267051479 heartbeat IPC: 0.0664687 cumulative IPC: 0.118336 (Simulation time: 1 hr 52 min 34 sec) 
Heartbeat CPU 0 instructions: 42000001 cycles: 271571219 heartbeat IPC: 0.221252 cumulative IPC: 0.120082 (Simulation time: 1 hr 54 min 46 sec) 
Heartbeat CPU 0 instructions: 43000000 cycles: 275668030 heartbeat IPC: 0.244092 cumulative IPC: 0.121959 (Simulation time: 1 hr 56 min 54 sec) 
Heartbeat CPU 0 instructions: 44000000 cycles: 289174486 heartbeat IPC: 0.0740387 cumulative IPC: 0.119681 (Simulation time: 2 hr 0 min 13 sec) 
Heartbeat CPU 0 instructions: 45000001 cycles: 296680744 heartbeat IPC: 0.133222 cumulative IPC: 0.12003 (Simulation time: 2 hr 2 min 49 sec) 
Heartbeat CPU 0 instructions: 46000001 cycles: 300787395 heartbeat IPC: 0.243507 cumulative IPC: 0.121744 (Simulation time: 2 hr 5 min 2 sec) 
Heartbeat CPU 0 instructions: 47000002 cycles: 310195415 heartbeat IPC: 0.106292 cumulative IPC: 0.121268 (Simulation time: 2 hr 7 min 51 sec) 
Heartbeat CPU 0 instructions: 48000000 cycles: 321887521 heartbeat IPC: 0.0855276 cumulative IPC: 0.119949 (Simulation time: 2 hr 10 min 53 sec) 
Heartbeat CPU 0 instructions: 49000000 cycles: 326373765 heartbeat IPC: 0.222904 cumulative IPC: 0.121386 (Simulation time: 2 hr 12 min 56 sec) 
Heartbeat CPU 0 instructions: 50000001 cycles: 332611499 heartbeat IPC: 0.160315 cumulative IPC: 0.122128 (Simulation time: 2 hr 15 min 15 sec) 
Heartbeat CPU 0 instructions: 51000001 cycles: 347384204 heartbeat IPC: 0.0676924 cumulative IPC: 0.119779 (Simulation time: 2 hr 18 min 29 sec) 
Heartbeat CPU 0 instructions: 52000000 cycles: 351891181 heartbeat IPC: 0.221878 cumulative IPC: 0.121105 (Simulation time: 2 hr 20 min 35 sec) 
Heartbeat CPU 0 instructions: 53000000 cycles: 356076082 heartbeat IPC: 0.238954 cumulative IPC: 0.122511 (Simulation time: 2 hr 22 min 35 sec) 
Heartbeat CPU 0 instructions: 54000002 cycles: 372056906 heartbeat IPC: 0.0625751 cumulative IPC: 0.119901 (Simulation time: 2 hr 25 min 44 sec) 
Heartbeat CPU 0 instructions: 55000002 cycles: 377176911 heartbeat IPC: 0.195312 cumulative IPC: 0.120938 (Simulation time: 2 hr 27 min 29 sec) 
Heartbeat CPU 0 instructions: 56000000 cycles: 381500693 heartbeat IPC: 0.231279 cumulative IPC: 0.122206 (Simulation time: 2 hr 28 min 55 sec) 
Heartbeat CPU 0 instructions: 57000000 cycles: 395140103 heartbeat IPC: 0.073317 cumulative IPC: 0.120496 (Simulation time: 2 hr 30 min 58 sec) 
Heartbeat CPU 0 instructions: 58000000 cycles: 402722911 heartbeat IPC: 0.131877 cumulative IPC: 0.120713 (Simulation time: 2 hr 32 min 28 sec) 
Heartbeat CPU 0 instructions: 59000002 cycles: 406897694 heartbeat IPC: 0.239534 cumulative IPC: 0.121948 (Simulation time: 2 hr 33 min 38 sec) 
Heartbeat CPU 0 instructions: 60000000 cycles: 418538815 heartbeat IPC: 0.0859022 cumulative IPC: 0.120933 (Simulation time: 2 hr 35 min 11 sec) 
Heartbeat CPU 0 instructions: 61000002 cycles: 428202569 heartbeat IPC: 0.10348 cumulative IPC: 0.120534 (Simulation time: 2 hr 36 min 33 sec) 
Heartbeat CPU 0 instructions: 62000001 cycles: 432590166 heartbeat IPC: 0.227915 cumulative IPC: 0.121636 (Simulation time: 2 hr 37 min 38 sec) 
Heartbeat CPU 0 instructions: 63000001 cycles: 442436079 heartbeat IPC: 0.101565 cumulative IPC: 0.121184 (Simulation time: 2 hr 38 min 55 sec) 
Heartbeat CPU 0 instructions: 64000000 cycles: 454070262 heartbeat IPC: 0.0859535 cumulative IPC: 0.120271 (Simulation time: 2 hr 40 min 15 sec) 
Heartbeat CPU 0 instructions: 65000002 cycles: 459508370 heartbeat IPC: 0.183888 cumulative IPC: 0.121033 (Simulation time: 2 hr 41 min 12 sec) 
Heartbeat CPU 0 instructions: 66000000 cycles: 465939435 heartbeat IPC: 0.155495 cumulative IPC: 0.121514 (Simulation time: 2 hr 42 min 10 sec) 
Heartbeat CPU 0 instructions: 67000002 cycles: 482069408 heartbeat IPC: 0.0619965 cumulative IPC: 0.119501 (Simulation time: 2 hr 43 min 35 sec) 
Heartbeat CPU 0 instructions: 68000000 cycles: 486470545 heartbeat IPC: 0.227214 cumulative IPC: 0.120486 (Simulation time: 2 hr 44 min 26 sec) 
Heartbeat CPU 0 instructions: 69000000 cycles: 490536778 heartbeat IPC: 0.245928 cumulative IPC: 0.121537 (Simulation time: 2 hr 45 min 13 sec) 
Heartbeat CPU 0 instructions: 70000001 cycles: 504960273 heartbeat IPC: 0.0693314 cumulative IPC: 0.12003 (Simulation time: 2 hr 46 min 18 sec) 
Heartbeat CPU 0 instructions: 71000002 cycles: 513283588 heartbeat IPC: 0.120145 cumulative IPC: 0.120032 (Simulation time: 2 hr 47 min 3 sec) 
Heartbeat CPU 0 instructions: 72000000 cycles: 518082430 heartbeat IPC: 0.208383 cumulative IPC: 0.120859 (Simulation time: 2 hr 47 min 40 sec) 
Heartbeat CPU 0 instructions: 73000002 cycles: 526996607 heartbeat IPC: 0.112181 cumulative IPC: 0.12071 (Simulation time: 2 hr 48 min 25 sec) 
Heartbeat CPU 0 instructions: 74000001 cycles: 539020870 heartbeat IPC: 0.0831651 cumulative IPC: 0.119865 (Simulation time: 2 hr 49 min 15 sec) 
Heartbeat CPU 0 instructions: 75000001 cycles: 543476535 heartbeat IPC: 0.224433 cumulative IPC: 0.12073 (Simulation time: 2 hr 49 min 48 sec) 
Heartbeat CPU 0 instructions: 76000000 cycles: 549469530 heartbeat IPC: 0.166861 cumulative IPC: 0.121238 (Simulation time: 2 hr 50 min 21 sec) 
Heartbeat CPU 0 instructions: 77000001 cycles: 565627363 heartbeat IPC: 0.0618895 cumulative IPC: 0.119527 (Simulation time: 2 hr 51 min 4 sec) 
Heartbeat CPU 0 instructions: 78000002 cycles: 570435294 heartbeat IPC: 0.20799 cumulative IPC: 0.12028 (Simulation time: 2 hr 51 min 28 sec) 
Heartbeat CPU 0 instructions: 79000001 cycles: 574747712 heartbeat IPC: 0.231888 cumulative IPC: 0.121125 (Simulation time: 2 hr 51 min 49 sec) 
Heartbeat CPU 0 instructions: 80000000 cycles: 588202202 heartbeat IPC: 0.0743246 cumulative IPC: 0.120045 (Simulation time: 2 hr 52 min 17 sec) 
Heartbeat CPU 0 instructions: 81000000 cycles: 595794271 heartbeat IPC: 0.131716 cumulative IPC: 0.120195 (Simulation time: 2 hr 52 min 37 sec) 
Heartbeat CPU 0 instructions: 82000000 cycles: 600639871 heartbeat IPC: 0.206373 cumulative IPC: 0.120896 (Simulation time: 2 hr 52 min 51 sec) 
Heartbeat CPU 0 instructions: 83000001 cycles: 610374558 heartbeat IPC: 0.102726 cumulative IPC: 0.120604 (Simulation time: 2 hr 53 min 7 sec) 
Heartbeat CPU 0 instructions: 84000000 cycles: 621815280 heartbeat IPC: 0.087407 cumulative IPC: 0.119988 (Simulation time: 2 hr 53 min 23 sec) 
Heartbeat CPU 0 instructions: 85000001 cycles: 626009403 heartbeat IPC: 0.238429 cumulative IPC: 0.120788 (Simulation time: 2 hr 53 min 33 sec) 
Heartbeat CPU 0 instructions: 86000000 cycles: 633785050 heartbeat IPC: 0.128607 cumulative IPC: 0.120885 (Simulation time: 2 hr 53 min 45 sec) 
Heartbeat CPU 0 instructions: 87000000 cycles: 648536251 heartbeat IPC: 0.0677911 cumulative IPC: 0.119667 (Simulation time: 2 hr 54 min 0 sec) 
Heartbeat CPU 0 instructions: 88000000 cycles: 654617593 heartbeat IPC: 0.164437 cumulative IPC: 0.120087 (Simulation time: 2 hr 54 min 11 sec) 
Heartbeat CPU 0 instructions: 89000000 cycles: 658736535 heartbeat IPC: 0.242781 cumulative IPC: 0.12086 (Simulation time: 2 hr 54 min 20 sec) 
Heartbeat CPU 0 instructions: 90000003 cycles: 670689346 heartbeat IPC: 0.0836626 cumulative IPC: 0.120192 (Simulation time: 2 hr 54 min 34 sec) 
Heartbeat CPU 0 instructions: 91000000 cycles: 679675018 heartbeat IPC: 0.111288 cumulative IPC: 0.120073 (Simulation time: 2 hr 54 min 45 sec) 
Heartbeat CPU 0 instructions: 92000000 cycles: 683924056 heartbeat IPC: 0.235347 cumulative IPC: 0.120795 (Simulation time: 2 hr 54 min 53 sec) 
Heartbeat CPU 0 instructions: 93000002 cycles: 692815544 heartbeat IPC: 0.112467 cumulative IPC: 0.120687 (Simulation time: 2 hr 55 min 2 sec) 
Heartbeat CPU 0 instructions: 94000002 cycles: 704677051 heartbeat IPC: 0.0843063 cumulative IPC: 0.12007 (Simulation time: 2 hr 55 min 10 sec) 
Heartbeat CPU 0 instructions: 95000000 cycles: 710315900 heartbeat IPC: 0.177341 cumulative IPC: 0.120528 (Simulation time: 2 hr 55 min 15 sec) 
Heartbeat CPU 0 instructions: 96000000 cycles: 715849032 heartbeat IPC: 0.180729 cumulative IPC: 0.120997 (Simulation time: 2 hr 55 min 20 sec) 
Heartbeat CPU 0 instructions: 97000000 cycles: 731388966 heartbeat IPC: 0.0643503 cumulative IPC: 0.119785 (Simulation time: 2 hr 55 min 30 sec) 
Heartbeat CPU 0 instructions: 98000002 cycles: 736014339 heartbeat IPC: 0.216199 cumulative IPC: 0.120395 (Simulation time: 2 hr 55 min 35 sec) 
Heartbeat CPU 0 instructions: 99000002 cycles: 740764985 heartbeat IPC: 0.210498 cumulative IPC: 0.120977 (Simulation time: 2 hr 55 min 41 sec) 
Heartbeat CPU 0 instructions: 100000000 cycles: 755089757 heartbeat IPC: 0.069809 cumulative IPC: 0.119999 (Simulation time: 2 hr 55 min 51 sec) 
Heartbeat CPU 0 instructions: 101000000 cycles: 761890111 heartbeat IPC: 0.147051 cumulative IPC: 0.120242 (Simulation time: 2 hr 55 min 57 sec) 
Heartbeat CPU 0 instructions: 102000003 cycles: 766050339 heartbeat IPC: 0.240372 cumulative IPC: 0.120899 (Simulation time: 2 hr 56 min 3 sec) 
Heartbeat CPU 0 instructions: 103000003 cycles: 778127933 heartbeat IPC: 0.0827979 cumulative IPC: 0.120304 (Simulation time: 2 hr 56 min 11 sec) 
Heartbeat CPU 0 instructions: 104000000 cycles: 789422355 heartbeat IPC: 0.088539 cumulative IPC: 0.119847 (Simulation time: 2 hr 56 min 20 sec) 
Heartbeat CPU 0 instructions: 105000000 cycles: 794162259 heartbeat IPC: 0.210975 cumulative IPC: 0.120394 (Simulation time: 2 hr 56 min 25 sec) 
Heartbeat CPU 0 instructions: 106000000 cycles: 798258263 heartbeat IPC: 0.24414 cumulative IPC: 0.121033 (Simulation time: 2 hr 56 min 31 sec) 
Heartbeat CPU 0 instructions: 107000002 cycles: 813989228 heartbeat IPC: 0.063569 cumulative IPC: 0.119915 (Simulation time: 2 hr 56 min 41 sec) 
Heartbeat CPU 0 instructions: 108000000 cycles: 819263927 heartbeat IPC: 0.189584 cumulative IPC: 0.120367 (Simulation time: 2 hr 56 min 47 sec) 
Heartbeat CPU 0 instructions: 109000001 cycles: 823538201 heartbeat IPC: 0.233958 cumulative IPC: 0.12096 (Simulation time: 2 hr 56 min 53 sec) 
Heartbeat CPU 0 instructions: 110000002 cycles: 833386395 heartbeat IPC: 0.101542 cumulative IPC: 0.120729 (Simulation time: 2 hr 57 min 1 sec) 
Finished CPU 0 instructions: 100000001 cycles: 828300432 cummulative IPC: 0.120729 (Simulation time: 2 hr 57 min 1 sec) 

ChampSim completed all CPUs

Region of Interest Statistics

CPU 0 cummulative IPC: 0.120729 instructions: 100000001 cycles: 828300432
LLC TOTAL     ACCESS:   18758549  HIT:    7877316  MISS:   10881233
LLC LOAD      ACCESS:    8470285  HIT:    4329738  MISS:    4140547
LLC RFO       ACCESS:     206380  HIT:      75260  MISS:     131120
LLC PREFETCH  ACCESS:    7974299  HIT:    2094147  MISS:    5880152
LLC WRITEBACK ACCESS:    2107585  HIT:    1378171  MISS:     729414
Insertion Distribution: 
	LOAD 556742 0 0 0 0 0 0 0 0 0 0 0 0 0 433505 3479200 
	RFO 21 0 0 0 0 0 0 0 0 0 0 0 0 0 10539 132979 
	PREF 0 908358 0 0 0 0 0 0 0 0 0 0 0 0 959586 4647341 
	WRITEBACK 0 0 0 0 0 0 0 0 0 0 0 0 0 0 0 796963 
Total Prefetch Downgrades: 905583
