
*** ChampSim Multicore Out-of-Order Simulator ***

Warmup Instructions: 10000000
Simulation Instructions: 100000000
Configuration: 2
Number of CPUs: 1
LLC sets: 2048
LLC ways: 16
Off-chip DRAM Channels: 1 Width: 64-bit Data Rate: 1600 MT/s

CPU 0 runs /datasets/cs240c-wi22-a00-public/data/Assignment2-gz/calculix_2655B.trace.gz
CPU 0 L1D next line prefetcher
CPU 0 L2C IP-based stride prefetcher
Initialize SRRIP state
Heartbeat CPU 0 instructions: 1000003 cycles: 392383 heartbeat IPC: 2.54854 cumulative IPC: 2.54854 (Simulation time: 0 hr 1 min 3 sec) 
Heartbeat CPU 0 instructions: 2000001 cycles: 785148 heartbeat IPC: 2.54605 cumulative IPC: 2.54729 (Simulation time: 0 hr 2 min 5 sec) 
Heartbeat CPU 0 instructions: 3000002 cycles: 1177684 heartbeat IPC: 2.54754 cumulative IPC: 2.54737 (Simulation time: 0 hr 3 min 5 sec) 
Heartbeat CPU 0 instructions: 4000000 cycles: 1569447 heartbeat IPC: 2.55256 cumulative IPC: 2.54867 (Simulation time: 0 hr 4 min 6 sec) 
Heartbeat CPU 0 instructions: 5000003 cycles: 1961684 heartbeat IPC: 2.54949 cumulative IPC: 2.54883 (Simulation time: 0 hr 5 min 7 sec) 
Heartbeat CPU 0 instructions: 6000003 cycles: 2353797 heartbeat IPC: 2.55029 cumulative IPC: 2.54907 (Simulation time: 0 hr 6 min 8 sec) 
Heartbeat CPU 0 instructions: 7000002 cycles: 2745952 heartbeat IPC: 2.55001 cumulative IPC: 2.54921 (Simulation time: 0 hr 7 min 7 sec) 
Heartbeat CPU 0 instructions: 8000000 cycles: 3137922 heartbeat IPC: 2.55121 cumulative IPC: 2.54946 (Simulation time: 0 hr 8 min 7 sec) 
Heartbeat CPU 0 instructions: 9000001 cycles: 3530092 heartbeat IPC: 2.54992 cumulative IPC: 2.54951 (Simulation time: 0 hr 9 min 7 sec) 
Heartbeat CPU 0 instructions: 10000000 cycles: 3921567 heartbeat IPC: 2.55444 cumulative IPC: 2.55 (Simulation time: 0 hr 10 min 10 sec) 

Warmup complete CPU 0 instructions: 10000004 cycles: 3921568 (Simulation time: 0 hr 10 min 10 sec) 

Heartbeat CPU 0 instructions: 11000001 cycles: 4356973 heartbeat IPC: 2.29671 cumulative IPC: 2.29671 (Simulation time: 0 hr 11 min 22 sec) 
Heartbeat CPU 0 instructions: 12000000 cycles: 4786085 heartbeat IPC: 2.33039 cumulative IPC: 2.31343 (Simulation time: 0 hr 12 min 34 sec) 
Heartbeat CPU 0 instructions: 13000000 cycles: 5215418 heartbeat IPC: 2.32919 cumulative IPC: 2.31866 (Simulation time: 0 hr 13 min 41 sec) 
Heartbeat CPU 0 instructions: 14000002 cycles: 5643215 heartbeat IPC: 2.33756 cumulative IPC: 2.32336 (Simulation time: 0 hr 14 min 48 sec) 
Heartbeat CPU 0 instructions: 15000001 cycles: 6066904 heartbeat IPC: 2.36022 cumulative IPC: 2.33064 (Simulation time: 0 hr 15 min 59 sec) 
Heartbeat CPU 0 instructions: 16000000 cycles: 6656462 heartbeat IPC: 1.69618 cumulative IPC: 2.19387 (Simulation time: 0 hr 17 min 15 sec) 
Heartbeat CPU 0 instructions: 17000000 cycles: 7098945 heartbeat IPC: 2.25997 cumulative IPC: 2.20307 (Simulation time: 0 hr 18 min 23 sec) 
Heartbeat CPU 0 instructions: 18000000 cycles: 7539986 heartbeat IPC: 2.26736 cumulative IPC: 2.21091 (Simulation time: 0 hr 19 min 28 sec) 
Heartbeat CPU 0 instructions: 19000000 cycles: 7980444 heartbeat IPC: 2.27036 cumulative IPC: 2.21736 (Simulation time: 0 hr 20 min 31 sec) 
Heartbeat CPU 0 instructions: 20000000 cycles: 8420134 heartbeat IPC: 2.27433 cumulative IPC: 2.22293 (Simulation time: 0 hr 21 min 35 sec) 
Heartbeat CPU 0 instructions: 21000002 cycles: 8859353 heartbeat IPC: 2.27677 cumulative IPC: 2.22772 (Simulation time: 0 hr 22 min 40 sec) 
Heartbeat CPU 0 instructions: 22000001 cycles: 9517116 heartbeat IPC: 1.5203 cumulative IPC: 2.14456 (Simulation time: 0 hr 23 min 50 sec) 
Heartbeat CPU 0 instructions: 23000000 cycles: 10084467 heartbeat IPC: 1.76258 cumulative IPC: 2.1094 (Simulation time: 0 hr 25 min 2 sec) 
Heartbeat CPU 0 instructions: 24000000 cycles: 10634610 heartbeat IPC: 1.81771 cumulative IPC: 2.08549 (Simulation time: 0 hr 26 min 7 sec) 
Heartbeat CPU 0 instructions: 25000003 cycles: 11184283 heartbeat IPC: 1.81927 cumulative IPC: 2.06534 (Simulation time: 0 hr 27 min 11 sec) 
Heartbeat CPU 0 instructions: 26000003 cycles: 11717315 heartbeat IPC: 1.87606 cumulative IPC: 2.0524 (Simulation time: 0 hr 28 min 18 sec) 
Heartbeat CPU 0 instructions: 27000000 cycles: 12264353 heartbeat IPC: 1.82802 cumulative IPC: 2.03769 (Simulation time: 0 hr 29 min 27 sec) 
Heartbeat CPU 0 instructions: 28000000 cycles: 12895186 heartbeat IPC: 1.58521 cumulative IPC: 2.00588 (Simulation time: 0 hr 30 min 37 sec) 
Heartbeat CPU 0 instructions: 29000003 cycles: 13437313 heartbeat IPC: 1.84459 cumulative IPC: 1.99669 (Simulation time: 0 hr 31 min 49 sec) 
Heartbeat CPU 0 instructions: 30000003 cycles: 13969966 heartbeat IPC: 1.87739 cumulative IPC: 1.99037 (Simulation time: 0 hr 33 min 0 sec) 
Heartbeat CPU 0 instructions: 31000002 cycles: 14486054 heartbeat IPC: 1.93765 cumulative IPC: 1.98779 (Simulation time: 0 hr 34 min 8 sec) 
Heartbeat CPU 0 instructions: 32000000 cycles: 14991630 heartbeat IPC: 1.97794 cumulative IPC: 1.98734 (Simulation time: 0 hr 35 min 13 sec) 
Heartbeat CPU 0 instructions: 33000003 cycles: 15547012 heartbeat IPC: 1.80057 cumulative IPC: 1.97842 (Simulation time: 0 hr 36 min 20 sec) 
Heartbeat CPU 0 instructions: 34000002 cycles: 16168089 heartbeat IPC: 1.6101 cumulative IPC: 1.95974 (Simulation time: 0 hr 37 min 33 sec) 
Heartbeat CPU 0 instructions: 35000001 cycles: 16692152 heartbeat IPC: 1.90817 cumulative IPC: 1.95762 (Simulation time: 0 hr 38 min 36 sec) 
Heartbeat CPU 0 instructions: 36000000 cycles: 17205966 heartbeat IPC: 1.94623 cumulative IPC: 1.95718 (Simulation time: 0 hr 39 min 52 sec) 
Heartbeat CPU 0 instructions: 37000002 cycles: 17701977 heartbeat IPC: 2.01609 cumulative IPC: 1.9593 (Simulation time: 0 hr 41 min 3 sec) 
Heartbeat CPU 0 instructions: 38000002 cycles: 18169311 heartbeat IPC: 2.1398 cumulative IPC: 1.96522 (Simulation time: 0 hr 42 min 8 sec) 
Heartbeat CPU 0 instructions: 39000002 cycles: 18767024 heartbeat IPC: 1.67304 cumulative IPC: 1.95346 (Simulation time: 0 hr 43 min 18 sec) 
Heartbeat CPU 0 instructions: 40000000 cycles: 19267682 heartbeat IPC: 1.99737 cumulative IPC: 1.95489 (Simulation time: 0 hr 44 min 26 sec) 
Heartbeat CPU 0 instructions: 41000003 cycles: 19757084 heartbeat IPC: 2.04332 cumulative IPC: 1.95762 (Simulation time: 0 hr 45 min 32 sec) 
Heartbeat CPU 0 instructions: 42000001 cycles: 20275256 heartbeat IPC: 1.92986 cumulative IPC: 1.95675 (Simulation time: 0 hr 46 min 39 sec) 
Heartbeat CPU 0 instructions: 43000001 cycles: 20804709 heartbeat IPC: 1.88874 cumulative IPC: 1.95461 (Simulation time: 0 hr 47 min 50 sec) 
Heartbeat CPU 0 instructions: 44000000 cycles: 21519631 heartbeat IPC: 1.39875 cumulative IPC: 1.93203 (Simulation time: 0 hr 49 min 6 sec) 
Heartbeat CPU 0 instructions: 45000002 cycles: 21983242 heartbeat IPC: 2.15699 cumulative IPC: 1.9378 (Simulation time: 0 hr 50 min 15 sec) 
Heartbeat CPU 0 instructions: 46000003 cycles: 22499257 heartbeat IPC: 1.93793 cumulative IPC: 1.93781 (Simulation time: 0 hr 51 min 24 sec) 
Heartbeat CPU 0 instructions: 47000000 cycles: 23007022 heartbeat IPC: 1.96941 cumulative IPC: 1.93865 (Simulation time: 0 hr 52 min 37 sec) 
Heartbeat CPU 0 instructions: 48000000 cycles: 23548155 heartbeat IPC: 1.84797 cumulative IPC: 1.93615 (Simulation time: 0 hr 53 min 47 sec) 
Heartbeat CPU 0 instructions: 49000000 cycles: 23994207 heartbeat IPC: 2.24189 cumulative IPC: 1.94294 (Simulation time: 0 hr 54 min 54 sec) 
Heartbeat CPU 0 instructions: 50000002 cycles: 24478547 heartbeat IPC: 2.06467 cumulative IPC: 1.94581 (Simulation time: 0 hr 56 min 0 sec) 
Heartbeat CPU 0 instructions: 51000001 cycles: 24958087 heartbeat IPC: 2.08533 cumulative IPC: 1.94899 (Simulation time: 0 hr 57 min 10 sec) 
Heartbeat CPU 0 instructions: 52000000 cycles: 25392886 heartbeat IPC: 2.29991 cumulative IPC: 1.9561 (Simulation time: 0 hr 58 min 18 sec) 
Heartbeat CPU 0 instructions: 53000002 cycles: 25924332 heartbeat IPC: 1.88166 cumulative IPC: 1.9543 (Simulation time: 0 hr 59 min 28 sec) 
Heartbeat CPU 0 instructions: 54000002 cycles: 26721114 heartbeat IPC: 1.25505 cumulative IPC: 1.92986 (Simulation time: 1 hr 0 min 47 sec) 
Heartbeat CPU 0 instructions: 55000003 cycles: 27251228 heartbeat IPC: 1.88639 cumulative IPC: 1.92888 (Simulation time: 1 hr 2 min 1 sec) 
Heartbeat CPU 0 instructions: 56000000 cycles: 27730328 heartbeat IPC: 2.08724 cumulative IPC: 1.93206 (Simulation time: 1 hr 3 min 9 sec) 
Heartbeat CPU 0 instructions: 57000000 cycles: 28263716 heartbeat IPC: 1.87481 cumulative IPC: 1.93081 (Simulation time: 1 hr 4 min 21 sec) 
Heartbeat CPU 0 instructions: 58000003 cycles: 28713378 heartbeat IPC: 2.2239 cumulative IPC: 1.93612 (Simulation time: 1 hr 5 min 35 sec) 
Heartbeat CPU 0 instructions: 59000001 cycles: 29238043 heartbeat IPC: 1.90597 cumulative IPC: 1.9355 (Simulation time: 1 hr 6 min 44 sec) 
Heartbeat CPU 0 instructions: 60000000 cycles: 29714040 heartbeat IPC: 2.10085 cumulative IPC: 1.93855 (Simulation time: 1 hr 7 min 51 sec) 
Heartbeat CPU 0 instructions: 61000002 cycles: 30219595 heartbeat IPC: 1.97803 cumulative IPC: 1.93931 (Simulation time: 1 hr 9 min 0 sec) 
Heartbeat CPU 0 instructions: 62000003 cycles: 30737277 heartbeat IPC: 1.93169 cumulative IPC: 1.93916 (Simulation time: 1 hr 10 min 16 sec) 
Heartbeat CPU 0 instructions: 63000003 cycles: 31415617 heartbeat IPC: 1.47419 cumulative IPC: 1.92769 (Simulation time: 1 hr 11 min 31 sec) 
Heartbeat CPU 0 instructions: 64000000 cycles: 31906167 heartbeat IPC: 2.03852 cumulative IPC: 1.92963 (Simulation time: 1 hr 12 min 41 sec) 
Heartbeat CPU 0 instructions: 65000001 cycles: 32435484 heartbeat IPC: 1.88923 cumulative IPC: 1.92888 (Simulation time: 1 hr 13 min 54 sec) 
Heartbeat CPU 0 instructions: 66000002 cycles: 33090975 heartbeat IPC: 1.52558 cumulative IPC: 1.91982 (Simulation time: 1 hr 15 min 9 sec) 
Heartbeat CPU 0 instructions: 67000003 cycles: 33670530 heartbeat IPC: 1.72546 cumulative IPC: 1.91603 (Simulation time: 1 hr 16 min 22 sec) 
Heartbeat CPU 0 instructions: 68000000 cycles: 34235792 heartbeat IPC: 1.76909 cumulative IPC: 1.91329 (Simulation time: 1 hr 17 min 32 sec) 
Heartbeat CPU 0 instructions: 69000001 cycles: 34793023 heartbeat IPC: 1.79459 cumulative IPC: 1.91115 (Simulation time: 1 hr 18 min 40 sec) 
Heartbeat CPU 0 instructions: 70000002 cycles: 35358202 heartbeat IPC: 1.76935 cumulative IPC: 1.9086 (Simulation time: 1 hr 19 min 51 sec) 
Heartbeat CPU 0 instructions: 71000003 cycles: 35917970 heartbeat IPC: 1.78646 cumulative IPC: 1.90646 (Simulation time: 1 hr 21 min 1 sec) 
Heartbeat CPU 0 instructions: 72000000 cycles: 36479766 heartbeat IPC: 1.78 cumulative IPC: 1.90428 (Simulation time: 1 hr 22 min 11 sec) 
Heartbeat CPU 0 instructions: 73000000 cycles: 37037217 heartbeat IPC: 1.79388 cumulative IPC: 1.90242 (Simulation time: 1 hr 23 min 19 sec) 
Heartbeat CPU 0 instructions: 74000000 cycles: 37587016 heartbeat IPC: 1.81885 cumulative IPC: 1.90106 (Simulation time: 1 hr 24 min 27 sec) 
Heartbeat CPU 0 instructions: 75000000 cycles: 38212234 heartbeat IPC: 1.59944 cumulative IPC: 1.89556 (Simulation time: 1 hr 25 min 43 sec) 
Heartbeat CPU 0 instructions: 76000000 cycles: 38812702 heartbeat IPC: 1.66537 cumulative IPC: 1.8916 (Simulation time: 1 hr 26 min 54 sec) 
Heartbeat CPU 0 instructions: 77000003 cycles: 39399199 heartbeat IPC: 1.70504 cumulative IPC: 1.88851 (Simulation time: 1 hr 28 min 3 sec) 
Heartbeat CPU 0 instructions: 78000002 cycles: 39985169 heartbeat IPC: 1.70657 cumulative IPC: 1.88556 (Simulation time: 1 hr 29 min 14 sec) 
Heartbeat CPU 0 instructions: 79000003 cycles: 40561060 heartbeat IPC: 1.73644 cumulative IPC: 1.88321 (Simulation time: 1 hr 30 min 25 sec) 
Heartbeat CPU 0 instructions: 80000000 cycles: 41140822 heartbeat IPC: 1.72484 cumulative IPC: 1.88075 (Simulation time: 1 hr 31 min 34 sec) 
Heartbeat CPU 0 instructions: 81000001 cycles: 41719644 heartbeat IPC: 1.72765 cumulative IPC: 1.8784 (Simulation time: 1 hr 32 min 49 sec) 
Heartbeat CPU 0 instructions: 82000001 cycles: 42289851 heartbeat IPC: 1.75375 cumulative IPC: 1.87655 (Simulation time: 1 hr 34 min 1 sec) 
Heartbeat CPU 0 instructions: 83000003 cycles: 42866983 heartbeat IPC: 1.73271 cumulative IPC: 1.87442 (Simulation time: 1 hr 35 min 17 sec) 
Heartbeat CPU 0 instructions: 84000000 cycles: 43478777 heartbeat IPC: 1.63453 cumulative IPC: 1.87071 (Simulation time: 1 hr 36 min 24 sec) 
Heartbeat CPU 0 instructions: 85000002 cycles: 44026939 heartbeat IPC: 1.82428 cumulative IPC: 1.87007 (Simulation time: 1 hr 37 min 35 sec) 
Heartbeat CPU 0 instructions: 86000001 cycles: 44734430 heartbeat IPC: 1.41344 cumulative IPC: 1.86216 (Simulation time: 1 hr 38 min 54 sec) 
Heartbeat CPU 0 instructions: 87000001 cycles: 45324939 heartbeat IPC: 1.69345 cumulative IPC: 1.85975 (Simulation time: 1 hr 40 min 10 sec) 
Heartbeat CPU 0 instructions: 88000000 cycles: 45797390 heartbeat IPC: 2.11662 cumulative IPC: 1.86265 (Simulation time: 1 hr 41 min 20 sec) 
Heartbeat CPU 0 instructions: 89000000 cycles: 46266037 heartbeat IPC: 2.1338 cumulative IPC: 1.86565 (Simulation time: 1 hr 42 min 29 sec) 
Heartbeat CPU 0 instructions: 90000001 cycles: 46739943 heartbeat IPC: 2.11013 cumulative IPC: 1.86836 (Simulation time: 1 hr 43 min 37 sec) 
Heartbeat CPU 0 instructions: 91000002 cycles: 47292845 heartbeat IPC: 1.80864 cumulative IPC: 1.8676 (Simulation time: 1 hr 44 min 48 sec) 
Heartbeat CPU 0 instructions: 92000000 cycles: 47827171 heartbeat IPC: 1.87151 cumulative IPC: 1.86764 (Simulation time: 1 hr 45 min 59 sec) 
Heartbeat CPU 0 instructions: 93000000 cycles: 48358228 heartbeat IPC: 1.88304 cumulative IPC: 1.86783 (Simulation time: 1 hr 47 min 10 sec) 
Heartbeat CPU 0 instructions: 94000003 cycles: 48872663 heartbeat IPC: 1.94389 cumulative IPC: 1.8687 (Simulation time: 1 hr 48 min 22 sec) 
Heartbeat CPU 0 instructions: 95000003 cycles: 49423120 heartbeat IPC: 1.81667 cumulative IPC: 1.86807 (Simulation time: 1 hr 49 min 31 sec) 
Heartbeat CPU 0 instructions: 96000000 cycles: 49912730 heartbeat IPC: 2.04244 cumulative IPC: 1.86992 (Simulation time: 1 hr 50 min 42 sec) 
Heartbeat CPU 0 instructions: 97000002 cycles: 50413670 heartbeat IPC: 1.99625 cumulative IPC: 1.87129 (Simulation time: 1 hr 51 min 48 sec) 
Heartbeat CPU 0 instructions: 98000000 cycles: 50894328 heartbeat IPC: 2.08048 cumulative IPC: 1.87343 (Simulation time: 1 hr 52 min 57 sec) 
Heartbeat CPU 0 instructions: 99000001 cycles: 51443484 heartbeat IPC: 1.82098 cumulative IPC: 1.87282 (Simulation time: 1 hr 54 min 6 sec) 
Heartbeat CPU 0 instructions: 100000000 cycles: 51935453 heartbeat IPC: 2.03265 cumulative IPC: 1.87446 (Simulation time: 1 hr 55 min 20 sec) 
Heartbeat CPU 0 instructions: 101000001 cycles: 52418581 heartbeat IPC: 2.06985 cumulative IPC: 1.8764 (Simulation time: 1 hr 56 min 27 sec) 
Heartbeat CPU 0 instructions: 102000003 cycles: 52888675 heartbeat IPC: 2.12724 cumulative IPC: 1.87881 (Simulation time: 1 hr 57 min 37 sec) 
Heartbeat CPU 0 instructions: 103000003 cycles: 53417374 heartbeat IPC: 1.89144 cumulative IPC: 1.87895 (Simulation time: 1 hr 58 min 48 sec) 
Heartbeat CPU 0 instructions: 104000000 cycles: 53969619 heartbeat IPC: 1.81079 cumulative IPC: 1.87819 (Simulation time: 1 hr 59 min 55 sec) 
Heartbeat CPU 0 instructions: 105000001 cycles: 54395500 heartbeat IPC: 2.34808 cumulative IPC: 1.88216 (Simulation time: 2 hr 1 min 4 sec) 
Heartbeat CPU 0 instructions: 106000002 cycles: 54841234 heartbeat IPC: 2.24349 cumulative IPC: 1.88532 (Simulation time: 2 hr 2 min 9 sec) 
Heartbeat CPU 0 instructions: 107000001 cycles: 55292653 heartbeat IPC: 2.21523 cumulative IPC: 1.88822 (Simulation time: 2 hr 3 min 17 sec) 
Heartbeat CPU 0 instructions: 108000000 cycles: 55711642 heartbeat IPC: 2.3867 cumulative IPC: 1.89225 (Simulation time: 2 hr 4 min 23 sec) 
Heartbeat CPU 0 instructions: 109000000 cycles: 56184767 heartbeat IPC: 2.11361 cumulative IPC: 1.89426 (Simulation time: 2 hr 5 min 30 sec) 
Heartbeat CPU 0 instructions: 110000000 cycles: 56603541 heartbeat IPC: 2.38792 cumulative IPC: 1.89818 (Simulation time: 2 hr 6 min 32 sec) 
Finished CPU 0 instructions: 100000000 cycles: 52681974 cummulative IPC: 1.89818 (Simulation time: 2 hr 6 min 32 sec) 

ChampSim completed all CPUs

Region of Interest Statistics

CPU 0 cummulative IPC: 1.89818 instructions: 100000000 cycles: 52681974
LLC TOTAL     ACCESS:     865123  HIT:     500136  MISS:     364987
LLC LOAD      ACCESS:     110528  HIT:      87711  MISS:      22817
LLC RFO       ACCESS:        412  HIT:        403  MISS:          9
LLC PREFETCH  ACCESS:     655871  HIT:     320910  MISS:     334961
LLC WRITEBACK ACCESS:      98312  HIT:      91112  MISS:       7200
Insertion Distribution: 
	LOAD 8286 0 0 0 0 0 0 0 0 0 0 0 0 0 9808 7446 
	RFO 0 0 0 0 0 0 0 0 0 0 0 0 0 0 16 0 
	PREF 0 10879 0 0 0 0 0 0 0 0 0 0 0 0 39822 302496 
	WRITEBACK 0 0 0 0 0 0 0 0 0 0 0 0 0 0 0 7222 
Total Prefetch Downgrades: 2522
