
*** ChampSim Multicore Out-of-Order Simulator ***

Warmup Instructions: 10000000
Simulation Instructions: 100000000
Configuration: 2
Number of CPUs: 1
LLC sets: 2048
LLC ways: 16
Off-chip DRAM Channels: 1 Width: 64-bit Data Rate: 1600 MT/s

CPU 0 runs /datasets/cs240c-wi22-a00-public/data/Assignment2-gz/perlbench_53B.trace.gz
CPU 0 L1D next line prefetcher
CPU 0 L2C IP-based stride prefetcher
Initialize SRRIP state
Heartbeat CPU 0 instructions: 1000000 cycles: 615802 heartbeat IPC: 1.6239 cumulative IPC: 1.6239 (Simulation time: 0 hr 1 min 49 sec) 
Heartbeat CPU 0 instructions: 2000001 cycles: 1252973 heartbeat IPC: 1.56944 cumulative IPC: 1.5962 (Simulation time: 0 hr 3 min 36 sec) 
Heartbeat CPU 0 instructions: 3000002 cycles: 1908459 heartbeat IPC: 1.52559 cumulative IPC: 1.57195 (Simulation time: 0 hr 5 min 21 sec) 
Heartbeat CPU 0 instructions: 4000000 cycles: 2523972 heartbeat IPC: 1.62466 cumulative IPC: 1.5848 (Simulation time: 0 hr 7 min 4 sec) 
Heartbeat CPU 0 instructions: 5000001 cycles: 3151982 heartbeat IPC: 1.59233 cumulative IPC: 1.5863 (Simulation time: 0 hr 8 min 55 sec) 
Heartbeat CPU 0 instructions: 6000001 cycles: 3767489 heartbeat IPC: 1.62468 cumulative IPC: 1.59257 (Simulation time: 0 hr 10 min 38 sec) 
Heartbeat CPU 0 instructions: 7000002 cycles: 4390292 heartbeat IPC: 1.60565 cumulative IPC: 1.59443 (Simulation time: 0 hr 12 min 16 sec) 
Heartbeat CPU 0 instructions: 8000000 cycles: 5000686 heartbeat IPC: 1.63828 cumulative IPC: 1.59978 (Simulation time: 0 hr 13 min 50 sec) 
Heartbeat CPU 0 instructions: 9000000 cycles: 5652422 heartbeat IPC: 1.53436 cumulative IPC: 1.59224 (Simulation time: 0 hr 15 min 37 sec) 
Heartbeat CPU 0 instructions: 10000001 cycles: 6287691 heartbeat IPC: 1.57414 cumulative IPC: 1.59041 (Simulation time: 0 hr 17 min 13 sec) 

Warmup complete CPU 0 instructions: 10000001 cycles: 6287691 (Simulation time: 0 hr 17 min 13 sec) 

Heartbeat CPU 0 instructions: 11000000 cycles: 9157705 heartbeat IPC: 0.34843 cumulative IPC: 0.34843 (Simulation time: 0 hr 18 min 54 sec) 
Heartbeat CPU 0 instructions: 12000000 cycles: 12019583 heartbeat IPC: 0.349421 cumulative IPC: 0.348925 (Simulation time: 0 hr 20 min 51 sec) 
Heartbeat CPU 0 instructions: 13000000 cycles: 14372905 heartbeat IPC: 0.424931 cumulative IPC: 0.371048 (Simulation time: 0 hr 22 min 31 sec) 
Heartbeat CPU 0 instructions: 14000000 cycles: 16883667 heartbeat IPC: 0.398285 cumulative IPC: 0.377502 (Simulation time: 0 hr 24 min 20 sec) 
Heartbeat CPU 0 instructions: 15000001 cycles: 19638476 heartbeat IPC: 0.363002 cumulative IPC: 0.37451 (Simulation time: 0 hr 26 min 10 sec) 
Heartbeat CPU 0 instructions: 16000000 cycles: 22302580 heartbeat IPC: 0.37536 cumulative IPC: 0.374651 (Simulation time: 0 hr 27 min 58 sec) 
Heartbeat CPU 0 instructions: 17000001 cycles: 24978095 heartbeat IPC: 0.37376 cumulative IPC: 0.374524 (Simulation time: 0 hr 29 min 46 sec) 
Heartbeat CPU 0 instructions: 18000002 cycles: 27834826 heartbeat IPC: 0.350051 cumulative IPC: 0.371279 (Simulation time: 0 hr 31 min 43 sec) 
Heartbeat CPU 0 instructions: 19000000 cycles: 30657949 heartbeat IPC: 0.354217 cumulative IPC: 0.369303 (Simulation time: 0 hr 33 min 27 sec) 
Heartbeat CPU 0 instructions: 20000000 cycles: 33512827 heartbeat IPC: 0.350278 cumulative IPC: 0.367308 (Simulation time: 0 hr 35 min 29 sec) 
Heartbeat CPU 0 instructions: 21000000 cycles: 35870956 heartbeat IPC: 0.424065 cumulative IPC: 0.371832 (Simulation time: 0 hr 37 min 30 sec) 
Heartbeat CPU 0 instructions: 22000000 cycles: 37947836 heartbeat IPC: 0.481491 cumulative IPC: 0.379025 (Simulation time: 0 hr 39 min 20 sec) 
Heartbeat CPU 0 instructions: 23000001 cycles: 39877745 heartbeat IPC: 0.51816 cumulative IPC: 0.387019 (Simulation time: 0 hr 41 min 8 sec) 
Heartbeat CPU 0 instructions: 24000000 cycles: 42275959 heartbeat IPC: 0.416977 cumulative IPC: 0.389016 (Simulation time: 0 hr 43 min 11 sec) 
Heartbeat CPU 0 instructions: 25000000 cycles: 44287374 heartbeat IPC: 0.497162 cumulative IPC: 0.39474 (Simulation time: 0 hr 44 min 48 sec) 
Heartbeat CPU 0 instructions: 26000001 cycles: 46271931 heartbeat IPC: 0.503891 cumulative IPC: 0.400158 (Simulation time: 0 hr 46 min 26 sec) 
Heartbeat CPU 0 instructions: 27000002 cycles: 48566908 heartbeat IPC: 0.435735 cumulative IPC: 0.402089 (Simulation time: 0 hr 48 min 9 sec) 
Heartbeat CPU 0 instructions: 28000000 cycles: 51138793 heartbeat IPC: 0.388819 cumulative IPC: 0.401328 (Simulation time: 0 hr 50 min 10 sec) 
Heartbeat CPU 0 instructions: 29000000 cycles: 53457571 heartbeat IPC: 0.431262 cumulative IPC: 0.402799 (Simulation time: 0 hr 52 min 10 sec) 
Heartbeat CPU 0 instructions: 30000000 cycles: 55500198 heartbeat IPC: 0.489566 cumulative IPC: 0.406401 (Simulation time: 0 hr 54 min 7 sec) 
Heartbeat CPU 0 instructions: 31000001 cycles: 57487252 heartbeat IPC: 0.503258 cumulative IPC: 0.41016 (Simulation time: 0 hr 55 min 48 sec) 
Heartbeat CPU 0 instructions: 32000000 cycles: 59484629 heartbeat IPC: 0.500656 cumulative IPC: 0.413558 (Simulation time: 0 hr 57 min 28 sec) 
Heartbeat CPU 0 instructions: 33000003 cycles: 61940923 heartbeat IPC: 0.407119 cumulative IPC: 0.413273 (Simulation time: 0 hr 59 min 13 sec) 
Heartbeat CPU 0 instructions: 34000000 cycles: 64636389 heartbeat IPC: 0.370992 cumulative IPC: 0.41132 (Simulation time: 1 hr 1 min 8 sec) 
Heartbeat CPU 0 instructions: 35000000 cycles: 67186128 heartbeat IPC: 0.392197 cumulative IPC: 0.41052 (Simulation time: 1 hr 3 min 0 sec) 
Heartbeat CPU 0 instructions: 36000000 cycles: 69976157 heartbeat IPC: 0.358419 cumulative IPC: 0.408237 (Simulation time: 1 hr 4 min 54 sec) 
Heartbeat CPU 0 instructions: 37000002 cycles: 72815223 heartbeat IPC: 0.352229 cumulative IPC: 0.405847 (Simulation time: 1 hr 6 min 48 sec) 
Heartbeat CPU 0 instructions: 38000000 cycles: 75684713 heartbeat IPC: 0.348493 cumulative IPC: 0.403476 (Simulation time: 1 hr 8 min 34 sec) 
Heartbeat CPU 0 instructions: 39000001 cycles: 78353219 heartbeat IPC: 0.374742 cumulative IPC: 0.402412 (Simulation time: 1 hr 10 min 33 sec) 
Heartbeat CPU 0 instructions: 40000000 cycles: 80951514 heartbeat IPC: 0.384867 cumulative IPC: 0.401801 (Simulation time: 1 hr 12 min 23 sec) 
Heartbeat CPU 0 instructions: 41000002 cycles: 83821898 heartbeat IPC: 0.348386 cumulative IPC: 0.399824 (Simulation time: 1 hr 14 min 16 sec) 
Heartbeat CPU 0 instructions: 42000000 cycles: 86424669 heartbeat IPC: 0.384205 cumulative IPC: 0.399316 (Simulation time: 1 hr 16 min 14 sec) 
Heartbeat CPU 0 instructions: 43000002 cycles: 89260989 heartbeat IPC: 0.35257 cumulative IPC: 0.397718 (Simulation time: 1 hr 17 min 59 sec) 
Heartbeat CPU 0 instructions: 44000000 cycles: 91925854 heartbeat IPC: 0.375253 cumulative IPC: 0.397019 (Simulation time: 1 hr 20 min 6 sec) 
Heartbeat CPU 0 instructions: 45000001 cycles: 93386024 heartbeat IPC: 0.684852 cumulative IPC: 0.401845 (Simulation time: 1 hr 21 min 38 sec) 
Heartbeat CPU 0 instructions: 46000000 cycles: 95410844 heartbeat IPC: 0.493871 cumulative IPC: 0.403935 (Simulation time: 1 hr 23 min 16 sec) 
Heartbeat CPU 0 instructions: 47000002 cycles: 97326247 heartbeat IPC: 0.522084 cumulative IPC: 0.406421 (Simulation time: 1 hr 24 min 51 sec) 
Heartbeat CPU 0 instructions: 48000000 cycles: 99246462 heartbeat IPC: 0.520774 cumulative IPC: 0.408783 (Simulation time: 1 hr 26 min 26 sec) 
Heartbeat CPU 0 instructions: 49000000 cycles: 101598429 heartbeat IPC: 0.425176 cumulative IPC: 0.409188 (Simulation time: 1 hr 28 min 12 sec) 
Heartbeat CPU 0 instructions: 50000002 cycles: 103461812 heartbeat IPC: 0.536659 cumulative IPC: 0.411632 (Simulation time: 1 hr 29 min 51 sec) 
Heartbeat CPU 0 instructions: 51000000 cycles: 105392280 heartbeat IPC: 0.518008 cumulative IPC: 0.413704 (Simulation time: 1 hr 31 min 26 sec) 
Heartbeat CPU 0 instructions: 52000000 cycles: 107307285 heartbeat IPC: 0.522192 cumulative IPC: 0.415761 (Simulation time: 1 hr 32 min 58 sec) 
Heartbeat CPU 0 instructions: 53000002 cycles: 109257831 heartbeat IPC: 0.512678 cumulative IPC: 0.417597 (Simulation time: 1 hr 34 min 34 sec) 
Heartbeat CPU 0 instructions: 54000000 cycles: 112149733 heartbeat IPC: 0.345793 cumulative IPC: 0.415635 (Simulation time: 1 hr 36 min 19 sec) 
Heartbeat CPU 0 instructions: 55000000 cycles: 114637617 heartbeat IPC: 0.401948 cumulative IPC: 0.415321 (Simulation time: 1 hr 38 min 10 sec) 
Heartbeat CPU 0 instructions: 56000000 cycles: 117438872 heartbeat IPC: 0.356983 cumulative IPC: 0.413851 (Simulation time: 1 hr 40 min 8 sec) 
Heartbeat CPU 0 instructions: 57000001 cycles: 120423149 heartbeat IPC: 0.33509 cumulative IPC: 0.411791 (Simulation time: 1 hr 42 min 3 sec) 
Heartbeat CPU 0 instructions: 58000003 cycles: 123391463 heartbeat IPC: 0.336892 cumulative IPC: 0.409893 (Simulation time: 1 hr 44 min 22 sec) 
Heartbeat CPU 0 instructions: 59000002 cycles: 126208075 heartbeat IPC: 0.355036 cumulative IPC: 0.408604 (Simulation time: 1 hr 46 min 14 sec) 
Heartbeat CPU 0 instructions: 60000000 cycles: 128972411 heartbeat IPC: 0.36175 cumulative IPC: 0.407549 (Simulation time: 1 hr 48 min 4 sec) 
Heartbeat CPU 0 instructions: 61000002 cycles: 131606890 heartbeat IPC: 0.379582 cumulative IPC: 0.406961 (Simulation time: 1 hr 49 min 54 sec) 
Heartbeat CPU 0 instructions: 62000002 cycles: 134291388 heartbeat IPC: 0.372509 cumulative IPC: 0.406238 (Simulation time: 1 hr 51 min 41 sec) 
Heartbeat CPU 0 instructions: 63000001 cycles: 136961508 heartbeat IPC: 0.374515 cumulative IPC: 0.40559 (Simulation time: 1 hr 53 min 33 sec) 
Heartbeat CPU 0 instructions: 64000000 cycles: 139619547 heartbeat IPC: 0.376217 cumulative IPC: 0.405004 (Simulation time: 1 hr 55 min 27 sec) 
Heartbeat CPU 0 instructions: 65000003 cycles: 142258464 heartbeat IPC: 0.378944 cumulative IPC: 0.404499 (Simulation time: 1 hr 57 min 19 sec) 
Heartbeat CPU 0 instructions: 66000001 cycles: 144887867 heartbeat IPC: 0.380314 cumulative IPC: 0.40404 (Simulation time: 1 hr 59 min 11 sec) 
Heartbeat CPU 0 instructions: 67000001 cycles: 147501311 heartbeat IPC: 0.382637 cumulative IPC: 0.403644 (Simulation time: 2 hr 1 min 4 sec) 
Heartbeat CPU 0 instructions: 68000000 cycles: 150170582 heartbeat IPC: 0.374634 cumulative IPC: 0.403106 (Simulation time: 2 hr 2 min 54 sec) 
Heartbeat CPU 0 instructions: 69000001 cycles: 152811334 heartbeat IPC: 0.37868 cumulative IPC: 0.402665 (Simulation time: 2 hr 4 min 47 sec) 
Heartbeat CPU 0 instructions: 70000001 cycles: 155427021 heartbeat IPC: 0.382309 cumulative IPC: 0.402308 (Simulation time: 2 hr 6 min 34 sec) 
Heartbeat CPU 0 instructions: 71000001 cycles: 158145890 heartbeat IPC: 0.3678 cumulative IPC: 0.401691 (Simulation time: 2 hr 8 min 29 sec) 
Heartbeat CPU 0 instructions: 72000000 cycles: 160750314 heartbeat IPC: 0.383962 cumulative IPC: 0.401392 (Simulation time: 2 hr 10 min 32 sec) 
Heartbeat CPU 0 instructions: 73000002 cycles: 163412840 heartbeat IPC: 0.375584 cumulative IPC: 0.400954 (Simulation time: 2 hr 12 min 21 sec) 
Heartbeat CPU 0 instructions: 74000001 cycles: 166095055 heartbeat IPC: 0.372826 cumulative IPC: 0.400482 (Simulation time: 2 hr 14 min 10 sec) 
Heartbeat CPU 0 instructions: 75000001 cycles: 168755476 heartbeat IPC: 0.37588 cumulative IPC: 0.400079 (Simulation time: 2 hr 15 min 51 sec) 
Heartbeat CPU 0 instructions: 76000000 cycles: 171398666 heartbeat IPC: 0.37833 cumulative IPC: 0.399731 (Simulation time: 2 hr 17 min 33 sec) 
Heartbeat CPU 0 instructions: 77000002 cycles: 174072175 heartbeat IPC: 0.374041 cumulative IPC: 0.399322 (Simulation time: 2 hr 19 min 24 sec) 
Heartbeat CPU 0 instructions: 78000000 cycles: 176726465 heartbeat IPC: 0.376748 cumulative IPC: 0.39897 (Simulation time: 2 hr 21 min 5 sec) 
Heartbeat CPU 0 instructions: 79000002 cycles: 179387642 heartbeat IPC: 0.375774 cumulative IPC: 0.398614 (Simulation time: 2 hr 22 min 48 sec) 
Heartbeat CPU 0 instructions: 80000000 cycles: 182022490 heartbeat IPC: 0.379528 cumulative IPC: 0.398327 (Simulation time: 2 hr 24 min 26 sec) 
Heartbeat CPU 0 instructions: 81000000 cycles: 184637215 heartbeat IPC: 0.382449 cumulative IPC: 0.398095 (Simulation time: 2 hr 25 min 58 sec) 
Heartbeat CPU 0 instructions: 82000002 cycles: 187314977 heartbeat IPC: 0.373447 cumulative IPC: 0.39773 (Simulation time: 2 hr 27 min 23 sec) 
Heartbeat CPU 0 instructions: 83000000 cycles: 189961724 heartbeat IPC: 0.377822 cumulative IPC: 0.397443 (Simulation time: 2 hr 28 min 40 sec) 
Heartbeat CPU 0 instructions: 84000000 cycles: 192619410 heartbeat IPC: 0.376267 cumulative IPC: 0.397141 (Simulation time: 2 hr 29 min 54 sec) 
Heartbeat CPU 0 instructions: 85000001 cycles: 195297785 heartbeat IPC: 0.373361 cumulative IPC: 0.396804 (Simulation time: 2 hr 31 min 3 sec) 
Heartbeat CPU 0 instructions: 86000000 cycles: 197794620 heartbeat IPC: 0.400507 cumulative IPC: 0.396852 (Simulation time: 2 hr 32 min 12 sec) 
Heartbeat CPU 0 instructions: 87000000 cycles: 199926010 heartbeat IPC: 0.469177 cumulative IPC: 0.397649 (Simulation time: 2 hr 33 min 12 sec) 
Heartbeat CPU 0 instructions: 88000000 cycles: 201923334 heartbeat IPC: 0.50067 cumulative IPC: 0.3987 (Simulation time: 2 hr 34 min 3 sec) 
Heartbeat CPU 0 instructions: 89000001 cycles: 203998909 heartbeat IPC: 0.481795 cumulative IPC: 0.399573 (Simulation time: 2 hr 34 min 54 sec) 
Heartbeat CPU 0 instructions: 90000000 cycles: 206662007 heartbeat IPC: 0.375502 cumulative IPC: 0.399253 (Simulation time: 2 hr 35 min 55 sec) 
Heartbeat CPU 0 instructions: 91000001 cycles: 209437207 heartbeat IPC: 0.360335 cumulative IPC: 0.398721 (Simulation time: 2 hr 36 min 56 sec) 
Heartbeat CPU 0 instructions: 92000000 cycles: 212122858 heartbeat IPC: 0.372349 cumulative IPC: 0.398377 (Simulation time: 2 hr 37 min 49 sec) 
Heartbeat CPU 0 instructions: 93000000 cycles: 214775703 heartbeat IPC: 0.376954 cumulative IPC: 0.398104 (Simulation time: 2 hr 38 min 41 sec) 
Heartbeat CPU 0 instructions: 94000002 cycles: 217424585 heartbeat IPC: 0.377519 cumulative IPC: 0.397846 (Simulation time: 2 hr 39 min 35 sec) 
Heartbeat CPU 0 instructions: 95000000 cycles: 220044285 heartbeat IPC: 0.381722 cumulative IPC: 0.397649 (Simulation time: 2 hr 40 min 25 sec) 
Heartbeat CPU 0 instructions: 96000000 cycles: 222709887 heartbeat IPC: 0.37515 cumulative IPC: 0.397371 (Simulation time: 2 hr 41 min 14 sec) 
Heartbeat CPU 0 instructions: 97000000 cycles: 225351085 heartbeat IPC: 0.378616 cumulative IPC: 0.397145 (Simulation time: 2 hr 42 min 2 sec) 
Heartbeat CPU 0 instructions: 98000000 cycles: 227973651 heartbeat IPC: 0.381306 cumulative IPC: 0.396958 (Simulation time: 2 hr 42 min 46 sec) 
Heartbeat CPU 0 instructions: 99000002 cycles: 230583179 heartbeat IPC: 0.383212 cumulative IPC: 0.396798 (Simulation time: 2 hr 43 min 31 sec) 
Heartbeat CPU 0 instructions: 100000000 cycles: 233209729 heartbeat IPC: 0.380727 cumulative IPC: 0.396612 (Simulation time: 2 hr 44 min 16 sec) 
Heartbeat CPU 0 instructions: 101000002 cycles: 235864699 heartbeat IPC: 0.376653 cumulative IPC: 0.396381 (Simulation time: 2 hr 44 min 59 sec) 
Heartbeat CPU 0 instructions: 102000000 cycles: 238495439 heartbeat IPC: 0.38012 cumulative IPC: 0.396197 (Simulation time: 2 hr 45 min 39 sec) 
Heartbeat CPU 0 instructions: 103000000 cycles: 241121531 heartbeat IPC: 0.380794 cumulative IPC: 0.396025 (Simulation time: 2 hr 46 min 17 sec) 
Heartbeat CPU 0 instructions: 104000000 cycles: 243786526 heartbeat IPC: 0.375235 cumulative IPC: 0.395791 (Simulation time: 2 hr 46 min 57 sec) 
Heartbeat CPU 0 instructions: 105000003 cycles: 245967564 heartbeat IPC: 0.458499 cumulative IPC: 0.396362 (Simulation time: 2 hr 47 min 28 sec) 
Heartbeat CPU 0 instructions: 106000000 cycles: 247944834 heartbeat IPC: 0.505746 cumulative IPC: 0.397257 (Simulation time: 2 hr 47 min 56 sec) 
Heartbeat CPU 0 instructions: 107000003 cycles: 249920858 heartbeat IPC: 0.506068 cumulative IPC: 0.39814 (Simulation time: 2 hr 48 min 23 sec) 
Heartbeat CPU 0 instructions: 108000000 cycles: 252633494 heartbeat IPC: 0.368644 cumulative IPC: 0.397815 (Simulation time: 2 hr 48 min 53 sec) 
Heartbeat CPU 0 instructions: 109000001 cycles: 255328237 heartbeat IPC: 0.371093 cumulative IPC: 0.397526 (Simulation time: 2 hr 49 min 23 sec) 
Heartbeat CPU 0 instructions: 110000000 cycles: 257834859 heartbeat IPC: 0.398943 cumulative IPC: 0.39754 (Simulation time: 2 hr 49 min 50 sec) 
Finished CPU 0 instructions: 100000000 cycles: 251547169 cummulative IPC: 0.39754 (Simulation time: 2 hr 49 min 50 sec) 

ChampSim completed all CPUs

Region of Interest Statistics

CPU 0 cummulative IPC: 0.39754 instructions: 100000000 cycles: 251547169
LLC TOTAL     ACCESS:     656707  HIT:     611774  MISS:      44933
LLC LOAD      ACCESS:     310909  HIT:     303132  MISS:       7777
LLC RFO       ACCESS:      30806  HIT:      26570  MISS:       4236
LLC PREFETCH  ACCESS:     212711  HIT:     180607  MISS:      32104
LLC WRITEBACK ACCESS:     102281  HIT:     101465  MISS:        816
Insertion Distribution: 
	LOAD 3392 0 0 0 0 0 0 0 0 0 0 0 0 0 17732 344 
	RFO 869 0 0 0 0 0 0 0 0 0 0 0 0 0 5087 90 
	PREF 0 633 0 0 0 0 0 0 0 0 0 0 0 0 28087 15798 
	WRITEBACK 0 0 0 0 0 0 0 0 0 0 0 0 0 0 0 1076 
Total Prefetch Downgrades: 3372
