
*** ChampSim Multicore Out-of-Order Simulator ***

Warmup Instructions: 10000000
Simulation Instructions: 100000000
Configuration: 2
Number of CPUs: 1
LLC sets: 2048
LLC ways: 16
Off-chip DRAM Channels: 1 Width: 64-bit Data Rate: 1600 MT/s

CPU 0 runs /datasets/cs240c-wi22-a00-public/data/Assignment2-gz/sphinx3_1339B.trace.gz
CPU 0 L1D next line prefetcher
CPU 0 L2C IP-based stride prefetcher
Initialize SRRIP state
Heartbeat CPU 0 instructions: 1000000 cycles: 339022 heartbeat IPC: 2.94966 cumulative IPC: 2.94966 (Simulation time: 0 hr 1 min 14 sec) 
Heartbeat CPU 0 instructions: 2000001 cycles: 693417 heartbeat IPC: 2.82171 cumulative IPC: 2.88427 (Simulation time: 0 hr 2 min 36 sec) 
Heartbeat CPU 0 instructions: 3000000 cycles: 1084463 heartbeat IPC: 2.55724 cumulative IPC: 2.76635 (Simulation time: 0 hr 3 min 59 sec) 
Heartbeat CPU 0 instructions: 4000000 cycles: 1529987 heartbeat IPC: 2.24455 cumulative IPC: 2.6144 (Simulation time: 0 hr 5 min 16 sec) 
Heartbeat CPU 0 instructions: 5000003 cycles: 1869000 heartbeat IPC: 2.94975 cumulative IPC: 2.67523 (Simulation time: 0 hr 6 min 28 sec) 
Heartbeat CPU 0 instructions: 6000002 cycles: 2253242 heartbeat IPC: 2.60252 cumulative IPC: 2.66283 (Simulation time: 0 hr 7 min 52 sec) 
Heartbeat CPU 0 instructions: 7000001 cycles: 2716996 heartbeat IPC: 2.15631 cumulative IPC: 2.57638 (Simulation time: 0 hr 9 min 7 sec) 
Heartbeat CPU 0 instructions: 8000000 cycles: 3055867 heartbeat IPC: 2.95097 cumulative IPC: 2.61791 (Simulation time: 0 hr 10 min 25 sec) 
Heartbeat CPU 0 instructions: 9000003 cycles: 3412460 heartbeat IPC: 2.80433 cumulative IPC: 2.63739 (Simulation time: 0 hr 11 min 42 sec) 
Heartbeat CPU 0 instructions: 10000001 cycles: 3799185 heartbeat IPC: 2.58581 cumulative IPC: 2.63214 (Simulation time: 0 hr 13 min 1 sec) 

Warmup complete CPU 0 instructions: 10000001 cycles: 3799185 (Simulation time: 0 hr 13 min 1 sec) 

Heartbeat CPU 0 instructions: 11000001 cycles: 4699574 heartbeat IPC: 1.11063 cumulative IPC: 1.11063 (Simulation time: 0 hr 14 min 29 sec) 
Heartbeat CPU 0 instructions: 12000000 cycles: 5521256 heartbeat IPC: 1.21701 cumulative IPC: 1.16139 (Simulation time: 0 hr 15 min 55 sec) 
Heartbeat CPU 0 instructions: 13000000 cycles: 6772376 heartbeat IPC: 0.799284 cumulative IPC: 1.00902 (Simulation time: 0 hr 17 min 30 sec) 
Heartbeat CPU 0 instructions: 14000000 cycles: 7630908 heartbeat IPC: 1.16478 cumulative IPC: 1.04392 (Simulation time: 0 hr 18 min 53 sec) 
Heartbeat CPU 0 instructions: 15000001 cycles: 8495603 heartbeat IPC: 1.15648 cumulative IPC: 1.06464 (Simulation time: 0 hr 20 min 13 sec) 
Heartbeat CPU 0 instructions: 16000000 cycles: 9519262 heartbeat IPC: 0.976887 cumulative IPC: 1.04894 (Simulation time: 0 hr 21 min 34 sec) 
Heartbeat CPU 0 instructions: 17000001 cycles: 10847709 heartbeat IPC: 0.752759 cumulative IPC: 0.993116 (Simulation time: 0 hr 22 min 59 sec) 
Heartbeat CPU 0 instructions: 18000003 cycles: 11904371 heartbeat IPC: 0.946378 cumulative IPC: 0.987023 (Simulation time: 0 hr 24 min 24 sec) 
Heartbeat CPU 0 instructions: 19000002 cycles: 12753663 heartbeat IPC: 1.17745 cumulative IPC: 1.00508 (Simulation time: 0 hr 25 min 40 sec) 
Heartbeat CPU 0 instructions: 20000000 cycles: 13610258 heartbeat IPC: 1.16741 cumulative IPC: 1.01926 (Simulation time: 0 hr 26 min 59 sec) 
Heartbeat CPU 0 instructions: 21000000 cycles: 14792046 heartbeat IPC: 0.846175 cumulative IPC: 1.00065 (Simulation time: 0 hr 28 min 23 sec) 
Heartbeat CPU 0 instructions: 22000000 cycles: 15766372 heartbeat IPC: 1.02635 cumulative IPC: 1.00274 (Simulation time: 0 hr 29 min 44 sec) 
Heartbeat CPU 0 instructions: 23000003 cycles: 16611937 heartbeat IPC: 1.18264 cumulative IPC: 1.01461 (Simulation time: 0 hr 31 min 0 sec) 
Heartbeat CPU 0 instructions: 24000000 cycles: 17531538 heartbeat IPC: 1.08742 cumulative IPC: 1.01949 (Simulation time: 0 hr 32 min 24 sec) 
Heartbeat CPU 0 instructions: 25000001 cycles: 18443426 heartbeat IPC: 1.09663 cumulative IPC: 1.02429 (Simulation time: 0 hr 33 min 47 sec) 
Heartbeat CPU 0 instructions: 26000003 cycles: 19256862 heartbeat IPC: 1.22936 cumulative IPC: 1.03508 (Simulation time: 0 hr 35 min 9 sec) 
Heartbeat CPU 0 instructions: 27000000 cycles: 20079926 heartbeat IPC: 1.21497 cumulative IPC: 1.04418 (Simulation time: 0 hr 36 min 25 sec) 
Heartbeat CPU 0 instructions: 28000000 cycles: 20995103 heartbeat IPC: 1.09268 cumulative IPC: 1.04676 (Simulation time: 0 hr 37 min 46 sec) 
Heartbeat CPU 0 instructions: 29000003 cycles: 21813854 heartbeat IPC: 1.22138 cumulative IPC: 1.0547 (Simulation time: 0 hr 39 min 9 sec) 
Heartbeat CPU 0 instructions: 30000003 cycles: 22629296 heartbeat IPC: 1.22633 cumulative IPC: 1.06213 (Simulation time: 0 hr 40 min 34 sec) 
Heartbeat CPU 0 instructions: 31000002 cycles: 23527545 heartbeat IPC: 1.11328 cumulative IPC: 1.06446 (Simulation time: 0 hr 41 min 56 sec) 
Heartbeat CPU 0 instructions: 32000000 cycles: 24375711 heartbeat IPC: 1.17901 cumulative IPC: 1.06918 (Simulation time: 0 hr 43 min 23 sec) 
Heartbeat CPU 0 instructions: 33000001 cycles: 25184811 heartbeat IPC: 1.23594 cumulative IPC: 1.07549 (Simulation time: 0 hr 44 min 43 sec) 
Heartbeat CPU 0 instructions: 34000001 cycles: 26563030 heartbeat IPC: 0.725574 cumulative IPC: 1.0543 (Simulation time: 0 hr 46 min 11 sec) 
Heartbeat CPU 0 instructions: 35000000 cycles: 27448949 heartbeat IPC: 1.12877 cumulative IPC: 1.05709 (Simulation time: 0 hr 47 min 31 sec) 
Heartbeat CPU 0 instructions: 36000000 cycles: 28295666 heartbeat IPC: 1.18103 cumulative IPC: 1.06138 (Simulation time: 0 hr 48 min 51 sec) 
Heartbeat CPU 0 instructions: 37000003 cycles: 29298211 heartbeat IPC: 0.997464 cumulative IPC: 1.05886 (Simulation time: 0 hr 50 min 17 sec) 
Heartbeat CPU 0 instructions: 38000000 cycles: 30460418 heartbeat IPC: 0.860429 cumulative IPC: 1.05021 (Simulation time: 0 hr 51 min 42 sec) 
Heartbeat CPU 0 instructions: 39000000 cycles: 31270983 heartbeat IPC: 1.23371 cumulative IPC: 1.05563 (Simulation time: 0 hr 53 min 2 sec) 
Heartbeat CPU 0 instructions: 40000000 cycles: 32113088 heartbeat IPC: 1.1875 cumulative IPC: 1.05955 (Simulation time: 0 hr 54 min 26 sec) 
Heartbeat CPU 0 instructions: 41000000 cycles: 33360595 heartbeat IPC: 0.801599 cumulative IPC: 1.04866 (Simulation time: 0 hr 55 min 54 sec) 
Heartbeat CPU 0 instructions: 42000002 cycles: 34203604 heartbeat IPC: 1.18623 cumulative IPC: 1.05248 (Simulation time: 0 hr 57 min 16 sec) 
Heartbeat CPU 0 instructions: 43000001 cycles: 35032692 heartbeat IPC: 1.20614 cumulative IPC: 1.05656 (Simulation time: 0 hr 58 min 38 sec) 
Heartbeat CPU 0 instructions: 44000000 cycles: 36101606 heartbeat IPC: 0.935528 cumulative IPC: 1.05255 (Simulation time: 1 hr 0 min 2 sec) 
Heartbeat CPU 0 instructions: 45000002 cycles: 37106395 heartbeat IPC: 0.995236 cumulative IPC: 1.05082 (Simulation time: 1 hr 1 min 30 sec) 
Heartbeat CPU 0 instructions: 46000003 cycles: 37860872 heartbeat IPC: 1.32542 cumulative IPC: 1.05691 (Simulation time: 1 hr 2 min 50 sec) 
Heartbeat CPU 0 instructions: 47000000 cycles: 38715614 heartbeat IPC: 1.16994 cumulative IPC: 1.05967 (Simulation time: 1 hr 4 min 11 sec) 
Heartbeat CPU 0 instructions: 48000000 cycles: 39699193 heartbeat IPC: 1.0167 cumulative IPC: 1.0585 (Simulation time: 1 hr 5 min 36 sec) 
Heartbeat CPU 0 instructions: 49000000 cycles: 40477997 heartbeat IPC: 1.28402 cumulative IPC: 1.06328 (Simulation time: 1 hr 6 min 55 sec) 
Heartbeat CPU 0 instructions: 50000000 cycles: 41307122 heartbeat IPC: 1.20609 cumulative IPC: 1.06644 (Simulation time: 1 hr 8 min 17 sec) 
Heartbeat CPU 0 instructions: 51000003 cycles: 42514188 heartbeat IPC: 0.828458 cumulative IPC: 1.05902 (Simulation time: 1 hr 9 min 50 sec) 
Heartbeat CPU 0 instructions: 52000000 cycles: 43312240 heartbeat IPC: 1.25305 cumulative IPC: 1.06294 (Simulation time: 1 hr 11 min 15 sec) 
Heartbeat CPU 0 instructions: 53000002 cycles: 44132749 heartbeat IPC: 1.21876 cumulative IPC: 1.06611 (Simulation time: 1 hr 12 min 39 sec) 
Heartbeat CPU 0 instructions: 54000003 cycles: 45288482 heartbeat IPC: 0.865253 cumulative IPC: 1.06051 (Simulation time: 1 hr 14 min 7 sec) 
Heartbeat CPU 0 instructions: 55000002 cycles: 46177437 heartbeat IPC: 1.12492 cumulative IPC: 1.06187 (Simulation time: 1 hr 15 min 25 sec) 
Heartbeat CPU 0 instructions: 56000000 cycles: 46971749 heartbeat IPC: 1.25895 cumulative IPC: 1.06549 (Simulation time: 1 hr 16 min 45 sec) 
Heartbeat CPU 0 instructions: 57000000 cycles: 47955500 heartbeat IPC: 1.01652 cumulative IPC: 1.0644 (Simulation time: 1 hr 18 min 7 sec) 
Heartbeat CPU 0 instructions: 58000000 cycles: 49037291 heartbeat IPC: 0.924393 cumulative IPC: 1.06105 (Simulation time: 1 hr 19 min 31 sec) 
Heartbeat CPU 0 instructions: 59000001 cycles: 49815481 heartbeat IPC: 1.28503 cumulative IPC: 1.06484 (Simulation time: 1 hr 20 min 51 sec) 
Heartbeat CPU 0 instructions: 60000000 cycles: 50667149 heartbeat IPC: 1.17417 cumulative IPC: 1.06683 (Simulation time: 1 hr 22 min 12 sec) 
Heartbeat CPU 0 instructions: 61000000 cycles: 52020425 heartbeat IPC: 0.738948 cumulative IPC: 1.05763 (Simulation time: 1 hr 23 min 42 sec) 
Heartbeat CPU 0 instructions: 62000002 cycles: 53163529 heartbeat IPC: 0.874813 cumulative IPC: 1.05339 (Simulation time: 1 hr 25 min 11 sec) 
Heartbeat CPU 0 instructions: 63000003 cycles: 53965478 heartbeat IPC: 1.24696 cumulative IPC: 1.05649 (Simulation time: 1 hr 26 min 31 sec) 
Heartbeat CPU 0 instructions: 64000000 cycles: 54786597 heartbeat IPC: 1.21785 cumulative IPC: 1.05908 (Simulation time: 1 hr 27 min 51 sec) 
Heartbeat CPU 0 instructions: 65000000 cycles: 55873827 heartbeat IPC: 0.919769 cumulative IPC: 1.05618 (Simulation time: 1 hr 29 min 16 sec) 
Heartbeat CPU 0 instructions: 66000001 cycles: 56839596 heartbeat IPC: 1.03545 cumulative IPC: 1.0558 (Simulation time: 1 hr 30 min 35 sec) 
Heartbeat CPU 0 instructions: 67000000 cycles: 57639021 heartbeat IPC: 1.2509 cumulative IPC: 1.0587 (Simulation time: 1 hr 31 min 55 sec) 
Heartbeat CPU 0 instructions: 68000000 cycles: 58546865 heartbeat IPC: 1.10151 cumulative IPC: 1.05941 (Simulation time: 1 hr 33 min 19 sec) 
Heartbeat CPU 0 instructions: 69000003 cycles: 59670132 heartbeat IPC: 0.890263 cumulative IPC: 1.05601 (Simulation time: 1 hr 34 min 45 sec) 
Heartbeat CPU 0 instructions: 70000001 cycles: 60497060 heartbeat IPC: 1.20929 cumulative IPC: 1.05824 (Simulation time: 1 hr 36 min 4 sec) 
Heartbeat CPU 0 instructions: 71000001 cycles: 61343053 heartbeat IPC: 1.18204 cumulative IPC: 1.06006 (Simulation time: 1 hr 37 min 25 sec) 
Heartbeat CPU 0 instructions: 72000000 cycles: 62566942 heartbeat IPC: 0.817067 cumulative IPC: 1.055 (Simulation time: 1 hr 38 min 54 sec) 
Heartbeat CPU 0 instructions: 73000001 cycles: 63374334 heartbeat IPC: 1.23856 cumulative IPC: 1.05749 (Simulation time: 1 hr 40 min 13 sec) 
Heartbeat CPU 0 instructions: 74000001 cycles: 64211880 heartbeat IPC: 1.19396 cumulative IPC: 1.05938 (Simulation time: 1 hr 41 min 35 sec) 
Heartbeat CPU 0 instructions: 75000003 cycles: 65321159 heartbeat IPC: 0.901488 cumulative IPC: 1.05653 (Simulation time: 1 hr 43 min 0 sec) 
Heartbeat CPU 0 instructions: 76000000 cycles: 66236285 heartbeat IPC: 1.09274 cumulative IPC: 1.05706 (Simulation time: 1 hr 44 min 22 sec) 
Heartbeat CPU 0 instructions: 77000002 cycles: 67046338 heartbeat IPC: 1.23449 cumulative IPC: 1.05934 (Simulation time: 1 hr 45 min 40 sec) 
Heartbeat CPU 0 instructions: 78000002 cycles: 67985280 heartbeat IPC: 1.06503 cumulative IPC: 1.05942 (Simulation time: 1 hr 47 min 2 sec) 
Heartbeat CPU 0 instructions: 79000001 cycles: 69053303 heartbeat IPC: 0.936309 cumulative IPC: 1.0574 (Simulation time: 1 hr 48 min 26 sec) 
Heartbeat CPU 0 instructions: 80000000 cycles: 69882058 heartbeat IPC: 1.20663 cumulative IPC: 1.05928 (Simulation time: 1 hr 49 min 45 sec) 
Heartbeat CPU 0 instructions: 81000001 cycles: 70729683 heartbeat IPC: 1.17977 cumulative IPC: 1.0608 (Simulation time: 1 hr 51 min 9 sec) 
Heartbeat CPU 0 instructions: 82000000 cycles: 71915411 heartbeat IPC: 0.843363 cumulative IPC: 1.05702 (Simulation time: 1 hr 52 min 31 sec) 
Heartbeat CPU 0 instructions: 83000001 cycles: 72729615 heartbeat IPC: 1.22819 cumulative IPC: 1.05904 (Simulation time: 1 hr 53 min 54 sec) 
Heartbeat CPU 0 instructions: 84000000 cycles: 73578661 heartbeat IPC: 1.17779 cumulative IPC: 1.06048 (Simulation time: 1 hr 55 min 15 sec) 
Heartbeat CPU 0 instructions: 85000002 cycles: 74741510 heartbeat IPC: 0.859959 cumulative IPC: 1.0572 (Simulation time: 1 hr 56 min 39 sec) 
Heartbeat CPU 0 instructions: 86000003 cycles: 75602180 heartbeat IPC: 1.16189 cumulative IPC: 1.05845 (Simulation time: 1 hr 58 min 0 sec) 
Heartbeat CPU 0 instructions: 87000001 cycles: 76441180 heartbeat IPC: 1.19189 cumulative IPC: 1.05999 (Simulation time: 1 hr 59 min 21 sec) 
Heartbeat CPU 0 instructions: 88000000 cycles: 77475783 heartbeat IPC: 0.966553 cumulative IPC: 1.05868 (Simulation time: 2 hr 0 min 40 sec) 
Heartbeat CPU 0 instructions: 89000000 cycles: 78476784 heartbeat IPC: 0.999 cumulative IPC: 1.05788 (Simulation time: 2 hr 2 min 0 sec) 
Heartbeat CPU 0 instructions: 90000003 cycles: 79268828 heartbeat IPC: 1.26256 cumulative IPC: 1.06003 (Simulation time: 2 hr 3 min 19 sec) 
Heartbeat CPU 0 instructions: 91000000 cycles: 80135659 heartbeat IPC: 1.15362 cumulative IPC: 1.06109 (Simulation time: 2 hr 4 min 44 sec) 
Heartbeat CPU 0 instructions: 92000000 cycles: 81320343 heartbeat IPC: 0.844107 cumulative IPC: 1.05778 (Simulation time: 2 hr 6 min 7 sec) 
Heartbeat CPU 0 instructions: 93000001 cycles: 82136733 heartbeat IPC: 1.22491 cumulative IPC: 1.05952 (Simulation time: 2 hr 7 min 28 sec) 
Heartbeat CPU 0 instructions: 94000000 cycles: 82981340 heartbeat IPC: 1.18398 cumulative IPC: 1.06085 (Simulation time: 2 hr 8 min 45 sec) 
Heartbeat CPU 0 instructions: 95000002 cycles: 84207892 heartbeat IPC: 0.815295 cumulative IPC: 1.0571 (Simulation time: 2 hr 10 min 15 sec) 
Heartbeat CPU 0 instructions: 96000000 cycles: 85029493 heartbeat IPC: 1.21713 cumulative IPC: 1.05872 (Simulation time: 2 hr 11 min 28 sec) 
Heartbeat CPU 0 instructions: 97000002 cycles: 85861503 heartbeat IPC: 1.20191 cumulative IPC: 1.06017 (Simulation time: 2 hr 12 min 42 sec) 
Heartbeat CPU 0 instructions: 98000000 cycles: 86971725 heartbeat IPC: 0.900719 cumulative IPC: 1.05804 (Simulation time: 2 hr 14 min 5 sec) 
Heartbeat CPU 0 instructions: 99000003 cycles: 88058727 heartbeat IPC: 0.919964 cumulative IPC: 1.05626 (Simulation time: 2 hr 15 min 22 sec) 
Heartbeat CPU 0 instructions: 100000000 cycles: 88875919 heartbeat IPC: 1.2237 cumulative IPC: 1.05787 (Simulation time: 2 hr 16 min 37 sec) 
Heartbeat CPU 0 instructions: 101000000 cycles: 89743069 heartbeat IPC: 1.1532 cumulative IPC: 1.05883 (Simulation time: 2 hr 17 min 51 sec) 
Heartbeat CPU 0 instructions: 102000001 cycles: 91215102 heartbeat IPC: 0.679333 cumulative IPC: 1.05244 (Simulation time: 2 hr 19 min 16 sec) 
Heartbeat CPU 0 instructions: 103000000 cycles: 92486280 heartbeat IPC: 0.786671 cumulative IPC: 1.04863 (Simulation time: 2 hr 20 min 37 sec) 
Heartbeat CPU 0 instructions: 104000000 cycles: 93419918 heartbeat IPC: 1.07108 cumulative IPC: 1.04886 (Simulation time: 2 hr 21 min 58 sec) 
Heartbeat CPU 0 instructions: 105000003 cycles: 94241272 heartbeat IPC: 1.21751 cumulative IPC: 1.0504 (Simulation time: 2 hr 23 min 15 sec) 
Heartbeat CPU 0 instructions: 106000000 cycles: 95134107 heartbeat IPC: 1.12002 cumulative IPC: 1.05108 (Simulation time: 2 hr 24 min 31 sec) 
Heartbeat CPU 0 instructions: 107000002 cycles: 96602638 heartbeat IPC: 0.680954 cumulative IPC: 1.04522 (Simulation time: 2 hr 25 min 46 sec) 
Heartbeat CPU 0 instructions: 108000000 cycles: 97497655 heartbeat IPC: 1.1173 cumulative IPC: 1.04591 (Simulation time: 2 hr 26 min 51 sec) 
Heartbeat CPU 0 instructions: 109000000 cycles: 98348065 heartbeat IPC: 1.1759 cumulative IPC: 1.04708 (Simulation time: 2 hr 27 min 56 sec) 
Heartbeat CPU 0 instructions: 110000000 cycles: 99487316 heartbeat IPC: 0.87777 cumulative IPC: 1.04506 (Simulation time: 2 hr 29 min 1 sec) 
Finished CPU 0 instructions: 100000000 cycles: 95688133 cummulative IPC: 1.04506 (Simulation time: 2 hr 29 min 1 sec) 

ChampSim completed all CPUs

Region of Interest Statistics

CPU 0 cummulative IPC: 1.04506 instructions: 100000000 cycles: 95688133
LLC TOTAL     ACCESS:    1574022  HIT:     817188  MISS:     756834
LLC LOAD      ACCESS:     202209  HIT:     167474  MISS:      34735
LLC RFO       ACCESS:     111367  HIT:     110262  MISS:       1105
LLC PREFETCH  ACCESS:    1127292  HIT:     407926  MISS:     719366
LLC WRITEBACK ACCESS:     133154  HIT:     131526  MISS:       1628
Insertion Distribution: 
	LOAD 8735 0 0 0 0 0 0 0 0 0 0 0 0 0 12931 22032 
	RFO 797 0 0 0 0 0 0 0 0 0 0 0 0 0 3709 137 
	PREF 0 5901 0 0 0 0 0 0 0 0 0 0 0 0 90119 706288 
	WRITEBACK 0 0 0 0 0 0 0 0 0 0 0 0 0 0 0 1960 
Total Prefetch Downgrades: 8945
