
*** ChampSim Multicore Out-of-Order Simulator ***

Warmup Instructions: 10000000
Simulation Instructions: 100000000
Configuration: 2
Number of CPUs: 1
LLC sets: 2048
LLC ways: 16
Off-chip DRAM Channels: 1 Width: 64-bit Data Rate: 1600 MT/s

CPU 0 runs /datasets/cs240c-wi22-a00-public/data/Assignment2-gz/soplex_205B.trace.gz
CPU 0 L1D next line prefetcher
CPU 0 L2C IP-based stride prefetcher
Initialize SRRIP state
Heartbeat CPU 0 instructions: 1000000 cycles: 395620 heartbeat IPC: 2.52768 cumulative IPC: 2.52768 (Simulation time: 0 hr 1 min 14 sec) 
Heartbeat CPU 0 instructions: 2000002 cycles: 925599 heartbeat IPC: 1.88687 cumulative IPC: 2.16077 (Simulation time: 0 hr 2 min 37 sec) 
Heartbeat CPU 0 instructions: 3000000 cycles: 1397358 heartbeat IPC: 2.11972 cumulative IPC: 2.14691 (Simulation time: 0 hr 4 min 27 sec) 
Heartbeat CPU 0 instructions: 4000000 cycles: 1758599 heartbeat IPC: 2.76823 cumulative IPC: 2.27454 (Simulation time: 0 hr 5 min 50 sec) 
Heartbeat CPU 0 instructions: 5000003 cycles: 2202111 heartbeat IPC: 2.25474 cumulative IPC: 2.27055 (Simulation time: 0 hr 7 min 22 sec) 
Heartbeat CPU 0 instructions: 6000003 cycles: 2622757 heartbeat IPC: 2.3773 cumulative IPC: 2.28767 (Simulation time: 0 hr 8 min 56 sec) 
Heartbeat CPU 0 instructions: 7000000 cycles: 3007201 heartbeat IPC: 2.60115 cumulative IPC: 2.32775 (Simulation time: 0 hr 10 min 7 sec) 
Heartbeat CPU 0 instructions: 8000000 cycles: 3400211 heartbeat IPC: 2.54446 cumulative IPC: 2.3528 (Simulation time: 0 hr 11 min 21 sec) 
Heartbeat CPU 0 instructions: 9000003 cycles: 3927185 heartbeat IPC: 1.89763 cumulative IPC: 2.29172 (Simulation time: 0 hr 12 min 42 sec) 
Heartbeat CPU 0 instructions: 10000000 cycles: 4412163 heartbeat IPC: 2.06194 cumulative IPC: 2.26646 (Simulation time: 0 hr 14 min 13 sec) 

Warmup complete CPU 0 instructions: 10000004 cycles: 4412165 (Simulation time: 0 hr 14 min 13 sec) 

Heartbeat CPU 0 instructions: 11000001 cycles: 6936345 heartbeat IPC: 0.396168 cumulative IPC: 0.396167 (Simulation time: 0 hr 15 min 55 sec) 
Heartbeat CPU 0 instructions: 12000000 cycles: 9129471 heartbeat IPC: 0.45597 cumulative IPC: 0.42397 (Simulation time: 0 hr 17 min 48 sec) 
Heartbeat CPU 0 instructions: 13000000 cycles: 12623031 heartbeat IPC: 0.286241 cumulative IPC: 0.365369 (Simulation time: 0 hr 19 min 45 sec) 
Heartbeat CPU 0 instructions: 14000003 cycles: 13915371 heartbeat IPC: 0.773793 cumulative IPC: 0.42091 (Simulation time: 0 hr 20 min 50 sec) 
Heartbeat CPU 0 instructions: 15000000 cycles: 15637294 heartbeat IPC: 0.580744 cumulative IPC: 0.445429 (Simulation time: 0 hr 22 min 3 sec) 
Heartbeat CPU 0 instructions: 16000000 cycles: 18776630 heartbeat IPC: 0.318539 cumulative IPC: 0.417697 (Simulation time: 0 hr 23 min 52 sec) 
Heartbeat CPU 0 instructions: 17000001 cycles: 22329836 heartbeat IPC: 0.281436 cumulative IPC: 0.390676 (Simulation time: 0 hr 26 min 12 sec) 
Heartbeat CPU 0 instructions: 18000000 cycles: 29139906 heartbeat IPC: 0.146841 cumulative IPC: 0.323523 (Simulation time: 0 hr 28 min 18 sec) 
Heartbeat CPU 0 instructions: 19000003 cycles: 33899846 heartbeat IPC: 0.210087 cumulative IPC: 0.305212 (Simulation time: 0 hr 30 min 35 sec) 
Heartbeat CPU 0 instructions: 20000000 cycles: 36047499 heartbeat IPC: 0.465623 cumulative IPC: 0.316102 (Simulation time: 0 hr 32 min 43 sec) 
Heartbeat CPU 0 instructions: 21000001 cycles: 40771839 heartbeat IPC: 0.21167 cumulative IPC: 0.302533 (Simulation time: 0 hr 34 min 57 sec) 
Heartbeat CPU 0 instructions: 22000001 cycles: 45076789 heartbeat IPC: 0.232291 cumulative IPC: 0.295097 (Simulation time: 0 hr 36 min 55 sec) 
Heartbeat CPU 0 instructions: 23000001 cycles: 48385178 heartbeat IPC: 0.302262 cumulative IPC: 0.295636 (Simulation time: 0 hr 38 min 42 sec) 
Heartbeat CPU 0 instructions: 24000000 cycles: 52470312 heartbeat IPC: 0.24479 cumulative IPC: 0.291314 (Simulation time: 0 hr 40 min 48 sec) 
Heartbeat CPU 0 instructions: 25000000 cycles: 56807833 heartbeat IPC: 0.230546 cumulative IPC: 0.286283 (Simulation time: 0 hr 42 min 37 sec) 
Heartbeat CPU 0 instructions: 26000002 cycles: 60842034 heartbeat IPC: 0.247881 cumulative IPC: 0.283538 (Simulation time: 0 hr 44 min 38 sec) 
Heartbeat CPU 0 instructions: 27000000 cycles: 63402160 heartbeat IPC: 0.390605 cumulative IPC: 0.288184 (Simulation time: 0 hr 46 min 16 sec) 
Heartbeat CPU 0 instructions: 28000000 cycles: 67095411 heartbeat IPC: 0.270764 cumulative IPC: 0.287158 (Simulation time: 0 hr 48 min 18 sec) 
Heartbeat CPU 0 instructions: 29000000 cycles: 69148830 heartbeat IPC: 0.486993 cumulative IPC: 0.293497 (Simulation time: 0 hr 50 min 8 sec) 
Heartbeat CPU 0 instructions: 30000003 cycles: 70125238 heartbeat IPC: 1.02417 cumulative IPC: 0.304353 (Simulation time: 0 hr 51 min 44 sec) 
Heartbeat CPU 0 instructions: 31000003 cycles: 71493991 heartbeat IPC: 0.730592 cumulative IPC: 0.313051 (Simulation time: 0 hr 53 min 31 sec) 
Heartbeat CPU 0 instructions: 32000000 cycles: 75329031 heartbeat IPC: 0.260753 cumulative IPC: 0.310222 (Simulation time: 0 hr 56 min 12 sec) 
Heartbeat CPU 0 instructions: 33000000 cycles: 78252210 heartbeat IPC: 0.342093 cumulative IPC: 0.311484 (Simulation time: 0 hr 58 min 39 sec) 
Heartbeat CPU 0 instructions: 34000002 cycles: 79881282 heartbeat IPC: 0.613848 cumulative IPC: 0.318011 (Simulation time: 1 hr 0 min 38 sec) 
Heartbeat CPU 0 instructions: 35000003 cycles: 82651078 heartbeat IPC: 0.361038 cumulative IPC: 0.319534 (Simulation time: 1 hr 2 min 37 sec) 
Heartbeat CPU 0 instructions: 36000000 cycles: 85207429 heartbeat IPC: 0.391181 cumulative IPC: 0.321801 (Simulation time: 1 hr 4 min 50 sec) 
Heartbeat CPU 0 instructions: 37000000 cycles: 88807123 heartbeat IPC: 0.277801 cumulative IPC: 0.319924 (Simulation time: 1 hr 7 min 19 sec) 
Heartbeat CPU 0 instructions: 38000002 cycles: 90107198 heartbeat IPC: 0.769188 cumulative IPC: 0.32674 (Simulation time: 1 hr 8 min 44 sec) 
Heartbeat CPU 0 instructions: 39000003 cycles: 92035168 heartbeat IPC: 0.518681 cumulative IPC: 0.330963 (Simulation time: 1 hr 10 min 32 sec) 
Heartbeat CPU 0 instructions: 40000000 cycles: 95245229 heartbeat IPC: 0.31152 cumulative IPC: 0.330276 (Simulation time: 1 hr 12 min 45 sec) 
Heartbeat CPU 0 instructions: 41000000 cycles: 98475775 heartbeat IPC: 0.309545 cumulative IPC: 0.329564 (Simulation time: 1 hr 14 min 40 sec) 
Heartbeat CPU 0 instructions: 42000001 cycles: 100227404 heartbeat IPC: 0.570898 cumulative IPC: 0.333976 (Simulation time: 1 hr 16 min 19 sec) 
Heartbeat CPU 0 instructions: 43000001 cycles: 103766180 heartbeat IPC: 0.282584 cumulative IPC: 0.332146 (Simulation time: 1 hr 18 min 22 sec) 
Heartbeat CPU 0 instructions: 44000000 cycles: 106052586 heartbeat IPC: 0.437367 cumulative IPC: 0.334513 (Simulation time: 1 hr 19 min 50 sec) 
Heartbeat CPU 0 instructions: 45000001 cycles: 107345470 heartbeat IPC: 0.773465 cumulative IPC: 0.340026 (Simulation time: 1 hr 20 min 59 sec) 
Heartbeat CPU 0 instructions: 46000002 cycles: 110194793 heartbeat IPC: 0.350961 cumulative IPC: 0.34032 (Simulation time: 1 hr 22 min 38 sec) 
Heartbeat CPU 0 instructions: 47000000 cycles: 113328380 heartbeat IPC: 0.319122 cumulative IPC: 0.339711 (Simulation time: 1 hr 24 min 35 sec) 
Heartbeat CPU 0 instructions: 48000000 cycles: 116178174 heartbeat IPC: 0.350903 cumulative IPC: 0.339996 (Simulation time: 1 hr 26 min 37 sec) 
Heartbeat CPU 0 instructions: 49000001 cycles: 118123751 heartbeat IPC: 0.513987 cumulative IPC: 0.342973 (Simulation time: 1 hr 28 min 6 sec) 
Heartbeat CPU 0 instructions: 50000000 cycles: 121370876 heartbeat IPC: 0.307964 cumulative IPC: 0.342001 (Simulation time: 1 hr 30 min 2 sec) 
Heartbeat CPU 0 instructions: 51000003 cycles: 123730198 heartbeat IPC: 0.423852 cumulative IPC: 0.343619 (Simulation time: 1 hr 31 min 30 sec) 
Heartbeat CPU 0 instructions: 52000000 cycles: 125015130 heartbeat IPC: 0.778249 cumulative IPC: 0.34825 (Simulation time: 1 hr 32 min 39 sec) 
Heartbeat CPU 0 instructions: 53000003 cycles: 127826197 heartbeat IPC: 0.355738 cumulative IPC: 0.348421 (Simulation time: 1 hr 34 min 20 sec) 
Heartbeat CPU 0 instructions: 54000001 cycles: 130986440 heartbeat IPC: 0.316431 cumulative IPC: 0.347622 (Simulation time: 1 hr 36 min 16 sec) 
Heartbeat CPU 0 instructions: 55000002 cycles: 134226512 heartbeat IPC: 0.308635 cumulative IPC: 0.346649 (Simulation time: 1 hr 38 min 17 sec) 
Heartbeat CPU 0 instructions: 56000000 cycles: 136026756 heartbeat IPC: 0.555479 cumulative IPC: 0.349505 (Simulation time: 1 hr 39 min 54 sec) 
Heartbeat CPU 0 instructions: 57000000 cycles: 139415579 heartbeat IPC: 0.295088 cumulative IPC: 0.348139 (Simulation time: 1 hr 41 min 57 sec) 
Heartbeat CPU 0 instructions: 58000000 cycles: 141648008 heartbeat IPC: 0.447943 cumulative IPC: 0.349763 (Simulation time: 1 hr 43 min 22 sec) 
Heartbeat CPU 0 instructions: 59000001 cycles: 142928517 heartbeat IPC: 0.78094 cumulative IPC: 0.353749 (Simulation time: 1 hr 44 min 31 sec) 
Heartbeat CPU 0 instructions: 60000000 cycles: 145774798 heartbeat IPC: 0.351335 cumulative IPC: 0.3537 (Simulation time: 1 hr 46 min 16 sec) 
Heartbeat CPU 0 instructions: 61000003 cycles: 148926247 heartbeat IPC: 0.317315 cumulative IPC: 0.352907 (Simulation time: 1 hr 48 min 16 sec) 
Heartbeat CPU 0 instructions: 62000002 cycles: 152096239 heartbeat IPC: 0.315458 cumulative IPC: 0.352103 (Simulation time: 1 hr 50 min 11 sec) 
Heartbeat CPU 0 instructions: 63000001 cycles: 153698658 heartbeat IPC: 0.624056 cumulative IPC: 0.355022 (Simulation time: 1 hr 51 min 40 sec) 
Heartbeat CPU 0 instructions: 64000000 cycles: 157371799 heartbeat IPC: 0.272246 cumulative IPC: 0.353034 (Simulation time: 1 hr 53 min 47 sec) 
Heartbeat CPU 0 instructions: 65000001 cycles: 159248300 heartbeat IPC: 0.532907 cumulative IPC: 0.355214 (Simulation time: 1 hr 55 min 7 sec) 
Heartbeat CPU 0 instructions: 66000000 cycles: 160534211 heartbeat IPC: 0.777658 cumulative IPC: 0.358694 (Simulation time: 1 hr 56 min 16 sec) 
Heartbeat CPU 0 instructions: 67000003 cycles: 163428177 heartbeat IPC: 0.345548 cumulative IPC: 0.358454 (Simulation time: 1 hr 57 min 58 sec) 
Heartbeat CPU 0 instructions: 68000000 cycles: 166588736 heartbeat IPC: 0.316399 cumulative IPC: 0.357635 (Simulation time: 1 hr 59 min 54 sec) 
Heartbeat CPU 0 instructions: 69000001 cycles: 169369649 heartbeat IPC: 0.359594 cumulative IPC: 0.357668 (Simulation time: 2 hr 1 min 45 sec) 
Heartbeat CPU 0 instructions: 70000000 cycles: 171203077 heartbeat IPC: 0.545426 cumulative IPC: 0.359732 (Simulation time: 2 hr 3 min 19 sec) 
Heartbeat CPU 0 instructions: 71000001 cycles: 174558199 heartbeat IPC: 0.298052 cumulative IPC: 0.358516 (Simulation time: 2 hr 5 min 20 sec) 
Heartbeat CPU 0 instructions: 72000000 cycles: 176751590 heartbeat IPC: 0.455915 cumulative IPC: 0.359755 (Simulation time: 2 hr 6 min 42 sec) 
Heartbeat CPU 0 instructions: 73000000 cycles: 178034599 heartbeat IPC: 0.779418 cumulative IPC: 0.362856 (Simulation time: 2 hr 7 min 53 sec) 
Heartbeat CPU 0 instructions: 74000001 cycles: 180856587 heartbeat IPC: 0.35436 cumulative IPC: 0.36272 (Simulation time: 2 hr 9 min 32 sec) 
Heartbeat CPU 0 instructions: 75000000 cycles: 184116465 heartbeat IPC: 0.30676 cumulative IPC: 0.361705 (Simulation time: 2 hr 11 min 26 sec) 
Heartbeat CPU 0 instructions: 76000000 cycles: 187348558 heartbeat IPC: 0.309397 cumulative IPC: 0.360781 (Simulation time: 2 hr 13 min 19 sec) 
Heartbeat CPU 0 instructions: 77000000 cycles: 188913136 heartbeat IPC: 0.63915 cumulative IPC: 0.363142 (Simulation time: 2 hr 14 min 49 sec) 
Heartbeat CPU 0 instructions: 78000000 cycles: 192697806 heartbeat IPC: 0.264224 cumulative IPC: 0.361153 (Simulation time: 2 hr 16 min 44 sec) 
Heartbeat CPU 0 instructions: 79000002 cycles: 194478973 heartbeat IPC: 0.561431 cumulative IPC: 0.36303 (Simulation time: 2 hr 17 min 52 sec) 
Heartbeat CPU 0 instructions: 80000000 cycles: 195767551 heartbeat IPC: 0.776048 cumulative IPC: 0.365811 (Simulation time: 2 hr 18 min 59 sec) 
Heartbeat CPU 0 instructions: 81000000 cycles: 198659353 heartbeat IPC: 0.345805 cumulative IPC: 0.365514 (Simulation time: 2 hr 20 min 33 sec) 
Heartbeat CPU 0 instructions: 82000000 cycles: 201917144 heartbeat IPC: 0.306956 cumulative IPC: 0.364548 (Simulation time: 2 hr 22 min 27 sec) 
Heartbeat CPU 0 instructions: 83000000 cycles: 205207511 heartbeat IPC: 0.303917 cumulative IPC: 0.363554 (Simulation time: 2 hr 24 min 9 sec) 
Heartbeat CPU 0 instructions: 84000000 cycles: 206847920 heartbeat IPC: 0.609604 cumulative IPC: 0.365548 (Simulation time: 2 hr 25 min 33 sec) 
Heartbeat CPU 0 instructions: 85000000 cycles: 210666123 heartbeat IPC: 0.261903 cumulative IPC: 0.363629 (Simulation time: 2 hr 27 min 12 sec) 
Heartbeat CPU 0 instructions: 86000002 cycles: 212080331 heartbeat IPC: 0.707111 cumulative IPC: 0.365968 (Simulation time: 2 hr 28 min 3 sec) 
Heartbeat CPU 0 instructions: 87000002 cycles: 213360647 heartbeat IPC: 0.781057 cumulative IPC: 0.368512 (Simulation time: 2 hr 28 min 50 sec) 
Heartbeat CPU 0 instructions: 88000000 cycles: 216274140 heartbeat IPC: 0.34323 cumulative IPC: 0.368164 (Simulation time: 2 hr 30 min 0 sec) 
Heartbeat CPU 0 instructions: 89000001 cycles: 219857377 heartbeat IPC: 0.279078 cumulative IPC: 0.366683 (Simulation time: 2 hr 31 min 15 sec) 
Heartbeat CPU 0 instructions: 90000001 cycles: 222945934 heartbeat IPC: 0.323776 cumulative IPC: 0.366076 (Simulation time: 2 hr 32 min 14 sec) 
Heartbeat CPU 0 instructions: 91000002 cycles: 224780853 heartbeat IPC: 0.544984 cumulative IPC: 0.367566 (Simulation time: 2 hr 33 min 14 sec) 
Heartbeat CPU 0 instructions: 92000000 cycles: 228496956 heartbeat IPC: 0.269099 cumulative IPC: 0.365933 (Simulation time: 2 hr 34 min 14 sec) 
Heartbeat CPU 0 instructions: 93000000 cycles: 229775951 heartbeat IPC: 0.781864 cumulative IPC: 0.368293 (Simulation time: 2 hr 34 min 53 sec) 
Heartbeat CPU 0 instructions: 94000000 cycles: 231177767 heartbeat IPC: 0.71336 cumulative IPC: 0.370427 (Simulation time: 2 hr 35 min 36 sec) 
Heartbeat CPU 0 instructions: 95000002 cycles: 234194630 heartbeat IPC: 0.331471 cumulative IPC: 0.369915 (Simulation time: 2 hr 36 min 29 sec) 
Heartbeat CPU 0 instructions: 96000000 cycles: 237122173 heartbeat IPC: 0.341583 cumulative IPC: 0.369559 (Simulation time: 2 hr 37 min 26 sec) 
Heartbeat CPU 0 instructions: 97000003 cycles: 239799621 heartbeat IPC: 0.373491 cumulative IPC: 0.369603 (Simulation time: 2 hr 38 min 11 sec) 
Heartbeat CPU 0 instructions: 98000003 cycles: 242075462 heartbeat IPC: 0.439398 cumulative IPC: 0.370272 (Simulation time: 2 hr 39 min 0 sec) 
Heartbeat CPU 0 instructions: 99000000 cycles: 245350758 heartbeat IPC: 0.305315 cumulative IPC: 0.369389 (Simulation time: 2 hr 39 min 54 sec) 
Heartbeat CPU 0 instructions: 100000000 cycles: 246632020 heartbeat IPC: 0.780481 cumulative IPC: 0.371563 (Simulation time: 2 hr 40 min 24 sec) 
Heartbeat CPU 0 instructions: 101000003 cycles: 248553715 heartbeat IPC: 0.520375 cumulative IPC: 0.372735 (Simulation time: 2 hr 40 min 59 sec) 
Heartbeat CPU 0 instructions: 102000002 cycles: 251713123 heartbeat IPC: 0.316515 cumulative IPC: 0.372016 (Simulation time: 2 hr 41 min 47 sec) 
Heartbeat CPU 0 instructions: 103000000 cycles: 253862516 heartbeat IPC: 0.465247 cumulative IPC: 0.37282 (Simulation time: 2 hr 42 min 33 sec) 
Heartbeat CPU 0 instructions: 104000000 cycles: 262786500 heartbeat IPC: 0.112058 cumulative IPC: 0.363813 (Simulation time: 2 hr 43 min 29 sec) 
Heartbeat CPU 0 instructions: 105000000 cycles: 264886188 heartbeat IPC: 0.476261 cumulative IPC: 0.36472 (Simulation time: 2 hr 44 min 19 sec) 
Heartbeat CPU 0 instructions: 106000002 cycles: 268658755 heartbeat IPC: 0.265072 cumulative IPC: 0.363297 (Simulation time: 2 hr 45 min 5 sec) 
Heartbeat CPU 0 instructions: 107000003 cycles: 272797549 heartbeat IPC: 0.241617 cumulative IPC: 0.361421 (Simulation time: 2 hr 45 min 47 sec) 
Heartbeat CPU 0 instructions: 108000000 cycles: 276149109 heartbeat IPC: 0.298368 cumulative IPC: 0.360643 (Simulation time: 2 hr 46 min 23 sec) 
Heartbeat CPU 0 instructions: 109000000 cycles: 279495550 heartbeat IPC: 0.298825 cumulative IPC: 0.359891 (Simulation time: 2 hr 47 min 0 sec) 
Heartbeat CPU 0 instructions: 110000003 cycles: 283052748 heartbeat IPC: 0.281121 cumulative IPC: 0.358885 (Simulation time: 2 hr 47 min 29 sec) 
Finished CPU 0 instructions: 100000003 cycles: 278640584 cummulative IPC: 0.358885 (Simulation time: 2 hr 47 min 29 sec) 

ChampSim completed all CPUs

Region of Interest Statistics

CPU 0 cummulative IPC: 0.358885 instructions: 100000003 cycles: 278640584
LLC TOTAL     ACCESS:    8731144  HIT:    4298142  MISS:    4433002
LLC LOAD      ACCESS:    2230347  HIT:     997317  MISS:    1233030
LLC RFO       ACCESS:     871507  HIT:     319791  MISS:     551716
LLC PREFETCH  ACCESS:    3454396  HIT:    1431277  MISS:    2023119
LLC WRITEBACK ACCESS:    2174894  HIT:    1549757  MISS:     625137
Insertion Distribution: 
	LOAD 362015 0 0 0 0 0 0 0 0 0 0 0 0 0 116307 885249 
	RFO 133436 0 0 0 0 0 0 0 0 0 0 0 0 0 72945 386177 
	PREF 0 115747 0 0 0 0 0 0 0 0 0 0 0 0 279518 1945729 
	WRITEBACK 0 0 0 0 0 0 0 0 0 0 0 0 0 0 0 727924 
Total Prefetch Downgrades: 132535
