
*** ChampSim Multicore Out-of-Order Simulator ***

Warmup Instructions: 10000000
Simulation Instructions: 100000000
Configuration: 2
Number of CPUs: 1
LLC sets: 2048
LLC ways: 16
Off-chip DRAM Channels: 1 Width: 64-bit Data Rate: 1600 MT/s

CPU 0 runs /datasets/cs240c-wi22-a00-public/data/Assignment2-gz/omnetpp_4B.trace.gz
CPU 0 L1D next line prefetcher
CPU 0 L2C IP-based stride prefetcher
Initialize SRRIP state
Heartbeat CPU 0 instructions: 1000001 cycles: 566984 heartbeat IPC: 1.76372 cumulative IPC: 1.76372 (Simulation time: 0 hr 1 min 22 sec) 
Heartbeat CPU 0 instructions: 2000001 cycles: 1135714 heartbeat IPC: 1.7583 cumulative IPC: 1.76101 (Simulation time: 0 hr 2 min 40 sec) 
Heartbeat CPU 0 instructions: 3000001 cycles: 1722945 heartbeat IPC: 1.70291 cumulative IPC: 1.74121 (Simulation time: 0 hr 4 min 3 sec) 
Heartbeat CPU 0 instructions: 4000000 cycles: 2292438 heartbeat IPC: 1.75595 cumulative IPC: 1.74487 (Simulation time: 0 hr 5 min 22 sec) 
Heartbeat CPU 0 instructions: 5000000 cycles: 2866650 heartbeat IPC: 1.74152 cumulative IPC: 1.7442 (Simulation time: 0 hr 6 min 43 sec) 
Heartbeat CPU 0 instructions: 6000000 cycles: 3442828 heartbeat IPC: 1.73557 cumulative IPC: 1.74275 (Simulation time: 0 hr 8 min 2 sec) 
Heartbeat CPU 0 instructions: 7000000 cycles: 4012137 heartbeat IPC: 1.75652 cumulative IPC: 1.74471 (Simulation time: 0 hr 9 min 19 sec) 
Heartbeat CPU 0 instructions: 8000000 cycles: 4565619 heartbeat IPC: 1.80674 cumulative IPC: 1.75223 (Simulation time: 0 hr 10 min 39 sec) 
Heartbeat CPU 0 instructions: 9000001 cycles: 5147727 heartbeat IPC: 1.7179 cumulative IPC: 1.74834 (Simulation time: 0 hr 11 min 56 sec) 
Heartbeat CPU 0 instructions: 10000000 cycles: 5701704 heartbeat IPC: 1.80513 cumulative IPC: 1.75386 (Simulation time: 0 hr 13 min 10 sec) 

Warmup complete CPU 0 instructions: 10000003 cycles: 5701705 (Simulation time: 0 hr 13 min 10 sec) 

Heartbeat CPU 0 instructions: 11000000 cycles: 8871741 heartbeat IPC: 0.315454 cumulative IPC: 0.315453 (Simulation time: 0 hr 14 min 44 sec) 
Heartbeat CPU 0 instructions: 12000000 cycles: 10026738 heartbeat IPC: 0.865803 cumulative IPC: 0.462424 (Simulation time: 0 hr 15 min 57 sec) 
Heartbeat CPU 0 instructions: 13000003 cycles: 11171503 heartbeat IPC: 0.873544 cumulative IPC: 0.548466 (Simulation time: 0 hr 17 min 9 sec) 
Heartbeat CPU 0 instructions: 14000000 cycles: 12291723 heartbeat IPC: 0.892679 cumulative IPC: 0.606978 (Simulation time: 0 hr 18 min 21 sec) 
Heartbeat CPU 0 instructions: 15000000 cycles: 13430899 heartbeat IPC: 0.877827 cumulative IPC: 0.646898 (Simulation time: 0 hr 19 min 27 sec) 
Heartbeat CPU 0 instructions: 16000000 cycles: 16266035 heartbeat IPC: 0.352717 cumulative IPC: 0.567949 (Simulation time: 0 hr 20 min 49 sec) 
Heartbeat CPU 0 instructions: 17000003 cycles: 19117095 heartbeat IPC: 0.350748 cumulative IPC: 0.521789 (Simulation time: 0 hr 22 min 8 sec) 
Heartbeat CPU 0 instructions: 18000002 cycles: 21891399 heartbeat IPC: 0.36045 cumulative IPC: 0.494141 (Simulation time: 0 hr 23 min 30 sec) 
Heartbeat CPU 0 instructions: 19000002 cycles: 24695711 heartbeat IPC: 0.356594 cumulative IPC: 0.473834 (Simulation time: 0 hr 24 min 55 sec) 
Heartbeat CPU 0 instructions: 20000000 cycles: 28010215 heartbeat IPC: 0.301704 cumulative IPC: 0.448259 (Simulation time: 0 hr 26 min 17 sec) 
Heartbeat CPU 0 instructions: 21000000 cycles: 31328468 heartbeat IPC: 0.301363 cumulative IPC: 0.429239 (Simulation time: 0 hr 27 min 41 sec) 
Heartbeat CPU 0 instructions: 22000001 cycles: 34524844 heartbeat IPC: 0.312855 cumulative IPC: 0.416332 (Simulation time: 0 hr 29 min 5 sec) 
Heartbeat CPU 0 instructions: 23000000 cycles: 37358778 heartbeat IPC: 0.352866 cumulative IPC: 0.410651 (Simulation time: 0 hr 30 min 28 sec) 
Heartbeat CPU 0 instructions: 24000000 cycles: 40145446 heartbeat IPC: 0.358851 cumulative IPC: 0.40646 (Simulation time: 0 hr 31 min 53 sec) 
Heartbeat CPU 0 instructions: 25000000 cycles: 42919865 heartbeat IPC: 0.360436 cumulative IPC: 0.403029 (Simulation time: 0 hr 33 min 17 sec) 
Heartbeat CPU 0 instructions: 26000002 cycles: 45681581 heartbeat IPC: 0.362094 cumulative IPC: 0.400201 (Simulation time: 0 hr 34 min 37 sec) 
Heartbeat CPU 0 instructions: 27000001 cycles: 48491998 heartbeat IPC: 0.355819 cumulative IPC: 0.397286 (Simulation time: 0 hr 35 min 58 sec) 
Heartbeat CPU 0 instructions: 28000000 cycles: 51243655 heartbeat IPC: 0.363417 cumulative IPC: 0.39524 (Simulation time: 0 hr 37 min 19 sec) 
Heartbeat CPU 0 instructions: 29000001 cycles: 54080825 heartbeat IPC: 0.352464 cumulative IPC: 0.392731 (Simulation time: 0 hr 38 min 42 sec) 
Heartbeat CPU 0 instructions: 30000000 cycles: 56881241 heartbeat IPC: 0.357089 cumulative IPC: 0.390781 (Simulation time: 0 hr 40 min 11 sec) 
Heartbeat CPU 0 instructions: 31000002 cycles: 59658765 heartbeat IPC: 0.360034 cumulative IPC: 0.389198 (Simulation time: 0 hr 41 min 32 sec) 
Heartbeat CPU 0 instructions: 32000000 cycles: 62476433 heartbeat IPC: 0.354903 cumulative IPC: 0.387496 (Simulation time: 0 hr 42 min 57 sec) 
Heartbeat CPU 0 instructions: 33000000 cycles: 65635960 heartbeat IPC: 0.316503 cumulative IPC: 0.383754 (Simulation time: 0 hr 44 min 21 sec) 
Heartbeat CPU 0 instructions: 34000001 cycles: 68946425 heartbeat IPC: 0.302073 cumulative IPC: 0.379478 (Simulation time: 0 hr 45 min 47 sec) 
Heartbeat CPU 0 instructions: 35000001 cycles: 71977452 heartbeat IPC: 0.329921 cumulative IPC: 0.377212 (Simulation time: 0 hr 47 min 13 sec) 
Heartbeat CPU 0 instructions: 36000000 cycles: 75267560 heartbeat IPC: 0.303941 cumulative IPC: 0.373747 (Simulation time: 0 hr 48 min 40 sec) 
Heartbeat CPU 0 instructions: 37000001 cycles: 78083097 heartbeat IPC: 0.355172 cumulative IPC: 0.373024 (Simulation time: 0 hr 50 min 5 sec) 
Heartbeat CPU 0 instructions: 38000001 cycles: 81278877 heartbeat IPC: 0.312913 cumulative IPC: 0.370482 (Simulation time: 0 hr 51 min 34 sec) 
Heartbeat CPU 0 instructions: 39000001 cycles: 83795006 heartbeat IPC: 0.397436 cumulative IPC: 0.371351 (Simulation time: 0 hr 52 min 54 sec) 
Heartbeat CPU 0 instructions: 40000000 cycles: 84917364 heartbeat IPC: 0.89098 cumulative IPC: 0.378713 (Simulation time: 0 hr 54 min 0 sec) 
Heartbeat CPU 0 instructions: 41000001 cycles: 86043639 heartbeat IPC: 0.887883 cumulative IPC: 0.385851 (Simulation time: 0 hr 55 min 7 sec) 
Heartbeat CPU 0 instructions: 42000001 cycles: 87177775 heartbeat IPC: 0.881728 cumulative IPC: 0.392753 (Simulation time: 0 hr 56 min 13 sec) 
Heartbeat CPU 0 instructions: 43000002 cycles: 88394072 heartbeat IPC: 0.822168 cumulative IPC: 0.399069 (Simulation time: 0 hr 57 min 24 sec) 
Heartbeat CPU 0 instructions: 44000000 cycles: 91296564 heartbeat IPC: 0.344531 cumulative IPC: 0.39722 (Simulation time: 0 hr 58 min 50 sec) 
Heartbeat CPU 0 instructions: 45000000 cycles: 94184759 heartbeat IPC: 0.346237 cumulative IPC: 0.395556 (Simulation time: 1 hr 0 min 11 sec) 
Heartbeat CPU 0 instructions: 46000000 cycles: 97537899 heartbeat IPC: 0.298228 cumulative IPC: 0.392002 (Simulation time: 1 hr 1 min 42 sec) 
Heartbeat CPU 0 instructions: 47000000 cycles: 100881690 heartbeat IPC: 0.299062 cumulative IPC: 0.388737 (Simulation time: 1 hr 3 min 10 sec) 
Heartbeat CPU 0 instructions: 48000000 cycles: 104037663 heartbeat IPC: 0.316859 cumulative IPC: 0.38643 (Simulation time: 1 hr 4 min 35 sec) 
Heartbeat CPU 0 instructions: 49000000 cycles: 106939743 heartbeat IPC: 0.34458 cumulative IPC: 0.385231 (Simulation time: 1 hr 6 min 7 sec) 
Heartbeat CPU 0 instructions: 50000001 cycles: 109748913 heartbeat IPC: 0.355977 cumulative IPC: 0.384441 (Simulation time: 1 hr 7 min 29 sec) 
Heartbeat CPU 0 instructions: 51000003 cycles: 112553967 heartbeat IPC: 0.3565 cumulative IPC: 0.383707 (Simulation time: 1 hr 8 min 52 sec) 
Heartbeat CPU 0 instructions: 52000000 cycles: 115339984 heartbeat IPC: 0.358934 cumulative IPC: 0.383078 (Simulation time: 1 hr 10 min 21 sec) 
Heartbeat CPU 0 instructions: 53000003 cycles: 118138794 heartbeat IPC: 0.357296 cumulative IPC: 0.382436 (Simulation time: 1 hr 11 min 44 sec) 
Heartbeat CPU 0 instructions: 54000001 cycles: 120908417 heartbeat IPC: 0.361059 cumulative IPC: 0.381922 (Simulation time: 1 hr 13 min 13 sec) 
Heartbeat CPU 0 instructions: 55000001 cycles: 123838138 heartbeat IPC: 0.341329 cumulative IPC: 0.380915 (Simulation time: 1 hr 14 min 42 sec) 
Heartbeat CPU 0 instructions: 56000000 cycles: 126625506 heartbeat IPC: 0.358761 cumulative IPC: 0.380405 (Simulation time: 1 hr 16 min 7 sec) 
Heartbeat CPU 0 instructions: 57000003 cycles: 129391741 heartbeat IPC: 0.361503 cumulative IPC: 0.379982 (Simulation time: 1 hr 17 min 30 sec) 
Heartbeat CPU 0 instructions: 58000001 cycles: 132369821 heartbeat IPC: 0.335786 cumulative IPC: 0.378943 (Simulation time: 1 hr 18 min 55 sec) 
Heartbeat CPU 0 instructions: 59000001 cycles: 135651476 heartbeat IPC: 0.304724 cumulative IPC: 0.377069 (Simulation time: 1 hr 20 min 22 sec) 
Heartbeat CPU 0 instructions: 60000000 cycles: 138631885 heartbeat IPC: 0.335524 cumulative IPC: 0.376137 (Simulation time: 1 hr 21 min 46 sec) 
Heartbeat CPU 0 instructions: 61000001 cycles: 141682338 heartbeat IPC: 0.32782 cumulative IPC: 0.375053 (Simulation time: 1 hr 23 min 14 sec) 
Heartbeat CPU 0 instructions: 62000000 cycles: 145023042 heartbeat IPC: 0.299338 cumulative IPC: 0.373238 (Simulation time: 1 hr 24 min 37 sec) 
Heartbeat CPU 0 instructions: 63000001 cycles: 147847818 heartbeat IPC: 0.354011 cumulative IPC: 0.372856 (Simulation time: 1 hr 26 min 1 sec) 
Heartbeat CPU 0 instructions: 64000000 cycles: 150649507 heartbeat IPC: 0.356927 cumulative IPC: 0.372548 (Simulation time: 1 hr 27 min 21 sec) 
Heartbeat CPU 0 instructions: 65000001 cycles: 153443105 heartbeat IPC: 0.357962 cumulative IPC: 0.372272 (Simulation time: 1 hr 28 min 43 sec) 
Heartbeat CPU 0 instructions: 66000002 cycles: 157590832 heartbeat IPC: 0.241096 cumulative IPC: 0.36869 (Simulation time: 1 hr 30 min 20 sec) 
Heartbeat CPU 0 instructions: 67000001 cycles: 159252376 heartbeat IPC: 0.601849 cumulative IPC: 0.371213 (Simulation time: 1 hr 31 min 36 sec) 
Heartbeat CPU 0 instructions: 68000000 cycles: 160376988 heartbeat IPC: 0.889195 cumulative IPC: 0.374979 (Simulation time: 1 hr 32 min 43 sec) 
Heartbeat CPU 0 instructions: 69000003 cycles: 161519011 heartbeat IPC: 0.875642 cumulative IPC: 0.378649 (Simulation time: 1 hr 33 min 48 sec) 
Heartbeat CPU 0 instructions: 70000000 cycles: 162639258 heartbeat IPC: 0.892658 cumulative IPC: 0.382318 (Simulation time: 1 hr 34 min 55 sec) 
Heartbeat CPU 0 instructions: 71000001 cycles: 163814954 heartbeat IPC: 0.850561 cumulative IPC: 0.385799 (Simulation time: 1 hr 36 min 1 sec) 
Heartbeat CPU 0 instructions: 72000000 cycles: 167149383 heartbeat IPC: 0.299901 cumulative IPC: 0.384025 (Simulation time: 1 hr 37 min 29 sec) 
Heartbeat CPU 0 instructions: 73000000 cycles: 170555926 heartbeat IPC: 0.293553 cumulative IPC: 0.382156 (Simulation time: 1 hr 38 min 57 sec) 
Heartbeat CPU 0 instructions: 74000001 cycles: 173895043 heartbeat IPC: 0.299481 cumulative IPC: 0.380514 (Simulation time: 1 hr 40 min 26 sec) 
Heartbeat CPU 0 instructions: 75000001 cycles: 176810928 heartbeat IPC: 0.342949 cumulative IPC: 0.379874 (Simulation time: 1 hr 41 min 51 sec) 
Heartbeat CPU 0 instructions: 76000000 cycles: 179597769 heartbeat IPC: 0.358829 cumulative IPC: 0.379537 (Simulation time: 1 hr 43 min 13 sec) 
Heartbeat CPU 0 instructions: 77000000 cycles: 182409127 heartbeat IPC: 0.3557 cumulative IPC: 0.379158 (Simulation time: 1 hr 44 min 36 sec) 
Heartbeat CPU 0 instructions: 78000001 cycles: 185220823 heartbeat IPC: 0.355658 cumulative IPC: 0.37879 (Simulation time: 1 hr 45 min 58 sec) 
Heartbeat CPU 0 instructions: 79000001 cycles: 188024867 heartbeat IPC: 0.356628 cumulative IPC: 0.378449 (Simulation time: 1 hr 47 min 23 sec) 
Heartbeat CPU 0 instructions: 80000000 cycles: 190803224 heartbeat IPC: 0.359925 cumulative IPC: 0.378171 (Simulation time: 1 hr 48 min 47 sec) 
Heartbeat CPU 0 instructions: 81000002 cycles: 193669829 heartbeat IPC: 0.348845 cumulative IPC: 0.377724 (Simulation time: 1 hr 50 min 15 sec) 
Heartbeat CPU 0 instructions: 82000001 cycles: 196483552 heartbeat IPC: 0.355401 cumulative IPC: 0.377394 (Simulation time: 1 hr 51 min 37 sec) 
Heartbeat CPU 0 instructions: 83000002 cycles: 199324174 heartbeat IPC: 0.352036 cumulative IPC: 0.377022 (Simulation time: 1 hr 53 min 0 sec) 
Heartbeat CPU 0 instructions: 84000000 cycles: 202183098 heartbeat IPC: 0.349781 cumulative IPC: 0.376626 (Simulation time: 1 hr 54 min 22 sec) 
Heartbeat CPU 0 instructions: 85000002 cycles: 205502265 heartbeat IPC: 0.301281 cumulative IPC: 0.375374 (Simulation time: 1 hr 55 min 52 sec) 
Heartbeat CPU 0 instructions: 86000002 cycles: 208802902 heartbeat IPC: 0.302972 cumulative IPC: 0.374198 (Simulation time: 1 hr 57 min 19 sec) 
Heartbeat CPU 0 instructions: 87000000 cycles: 211835590 heartbeat IPC: 0.32974 cumulative IPC: 0.373544 (Simulation time: 1 hr 58 min 45 sec) 
Heartbeat CPU 0 instructions: 88000000 cycles: 214846884 heartbeat IPC: 0.332083 cumulative IPC: 0.372947 (Simulation time: 2 hr 0 min 7 sec) 
Heartbeat CPU 0 instructions: 89000002 cycles: 217928899 heartbeat IPC: 0.324464 cumulative IPC: 0.372243 (Simulation time: 2 hr 1 min 34 sec) 
Heartbeat CPU 0 instructions: 90000001 cycles: 220707908 heartbeat IPC: 0.35984 cumulative IPC: 0.372082 (Simulation time: 2 hr 2 min 57 sec) 
Heartbeat CPU 0 instructions: 91000001 cycles: 223520330 heartbeat IPC: 0.355565 cumulative IPC: 0.371869 (Simulation time: 2 hr 4 min 20 sec) 
Heartbeat CPU 0 instructions: 92000000 cycles: 226433462 heartbeat IPC: 0.343273 cumulative IPC: 0.371492 (Simulation time: 2 hr 5 min 45 sec) 
Heartbeat CPU 0 instructions: 93000000 cycles: 229257309 heartbeat IPC: 0.354127 cumulative IPC: 0.371272 (Simulation time: 2 hr 7 min 2 sec) 
Heartbeat CPU 0 instructions: 94000000 cycles: 233777435 heartbeat IPC: 0.221233 cumulative IPC: 0.368299 (Simulation time: 2 hr 8 min 39 sec) 
Heartbeat CPU 0 instructions: 95000000 cycles: 234958966 heartbeat IPC: 0.846359 cumulative IPC: 0.370762 (Simulation time: 2 hr 9 min 48 sec) 
Heartbeat CPU 0 instructions: 96000000 cycles: 236102055 heartbeat IPC: 0.874822 cumulative IPC: 0.373263 (Simulation time: 2 hr 10 min 55 sec) 
Heartbeat CPU 0 instructions: 97000002 cycles: 237220766 heartbeat IPC: 0.893888 cumulative IPC: 0.375779 (Simulation time: 2 hr 11 min 58 sec) 
Heartbeat CPU 0 instructions: 98000001 cycles: 238362704 heartbeat IPC: 0.875703 cumulative IPC: 0.378233 (Simulation time: 2 hr 13 min 2 sec) 
Heartbeat CPU 0 instructions: 99000002 cycles: 240232180 heartbeat IPC: 0.53491 cumulative IPC: 0.379482 (Simulation time: 2 hr 14 min 13 sec) 
Heartbeat CPU 0 instructions: 100000000 cycles: 243609978 heartbeat IPC: 0.29605 cumulative IPC: 0.378297 (Simulation time: 2 hr 15 min 37 sec) 
Heartbeat CPU 0 instructions: 101000002 cycles: 246707694 heartbeat IPC: 0.322819 cumulative IPC: 0.377584 (Simulation time: 2 hr 16 min 57 sec) 
Heartbeat CPU 0 instructions: 102000001 cycles: 249711756 heartbeat IPC: 0.332882 cumulative IPC: 0.377034 (Simulation time: 2 hr 18 min 15 sec) 
Heartbeat CPU 0 instructions: 103000000 cycles: 252510033 heartbeat IPC: 0.357362 cumulative IPC: 0.376811 (Simulation time: 2 hr 19 min 33 sec) 
Heartbeat CPU 0 instructions: 104000000 cycles: 255325801 heartbeat IPC: 0.355143 cumulative IPC: 0.376566 (Simulation time: 2 hr 20 min 50 sec) 
Heartbeat CPU 0 instructions: 105000001 cycles: 258121324 heartbeat IPC: 0.357715 cumulative IPC: 0.376357 (Simulation time: 2 hr 22 min 5 sec) 
Heartbeat CPU 0 instructions: 106000000 cycles: 261033669 heartbeat IPC: 0.343366 cumulative IPC: 0.375981 (Simulation time: 2 hr 23 min 26 sec) 
Heartbeat CPU 0 instructions: 107000002 cycles: 263839176 heartbeat IPC: 0.356443 cumulative IPC: 0.375769 (Simulation time: 2 hr 24 min 40 sec) 
Heartbeat CPU 0 instructions: 108000000 cycles: 266639168 heartbeat IPC: 0.357143 cumulative IPC: 0.375569 (Simulation time: 2 hr 25 min 47 sec) 
Heartbeat CPU 0 instructions: 109000002 cycles: 269429169 heartbeat IPC: 0.358424 cumulative IPC: 0.375388 (Simulation time: 2 hr 26 min 47 sec) 
Heartbeat CPU 0 instructions: 110000001 cycles: 272266716 heartbeat IPC: 0.352417 cumulative IPC: 0.375143 (Simulation time: 2 hr 27 min 49 sec) 
Finished CPU 0 instructions: 100000001 cycles: 266565013 cummulative IPC: 0.375143 (Simulation time: 2 hr 27 min 49 sec) 

ChampSim completed all CPUs

Region of Interest Statistics

CPU 0 cummulative IPC: 0.375143 instructions: 100000001 cycles: 266565013
LLC TOTAL     ACCESS:    4666695  HIT:    2409042  MISS:    2257653
LLC LOAD      ACCESS:    2184880  HIT:    2053578  MISS:     131302
LLC RFO       ACCESS:      24962  HIT:      11920  MISS:      13042
LLC PREFETCH  ACCESS:    2376484  HIT:     285473  MISS:    2091011
LLC WRITEBACK ACCESS:      80369  HIT:      58071  MISS:      22298
Insertion Distribution: 
	LOAD 29586 0 0 0 0 0 0 0 0 0 0 0 0 0 68472 111294 
	RFO 3447 0 0 0 0 0 0 0 0 0 0 0 0 0 4248 6972 
	PREF 0 11812 0 0 0 0 0 0 0 0 0 0 0 0 56969 2227175 
	WRITEBACK 0 0 0 0 0 0 0 0 0 0 0 0 0 0 0 23090 
Total Prefetch Downgrades: 13298
