
*** ChampSim Multicore Out-of-Order Simulator ***

Warmup Instructions: 10000000
Simulation Instructions: 100000000
Configuration: 2
Number of CPUs: 1
LLC sets: 2048
LLC ways: 16
Off-chip DRAM Channels: 1 Width: 64-bit Data Rate: 1600 MT/s

CPU 0 runs /datasets/cs240c-wi22-a00-public/data/Assignment2-gz/sphinx3_883B.trace.gz
CPU 0 L1D next line prefetcher
CPU 0 L2C IP-based stride prefetcher
Initialize SRRIP state
Heartbeat CPU 0 instructions: 1000003 cycles: 414388 heartbeat IPC: 2.4132 cumulative IPC: 2.4132 (Simulation time: 0 hr 1 min 29 sec) 
Heartbeat CPU 0 instructions: 2000000 cycles: 823945 heartbeat IPC: 2.44166 cumulative IPC: 2.42735 (Simulation time: 0 hr 2 min 58 sec) 
Heartbeat CPU 0 instructions: 3000003 cycles: 1298783 heartbeat IPC: 2.10599 cumulative IPC: 2.30986 (Simulation time: 0 hr 4 min 21 sec) 
Heartbeat CPU 0 instructions: 4000000 cycles: 1637673 heartbeat IPC: 2.9508 cumulative IPC: 2.44249 (Simulation time: 0 hr 5 min 39 sec) 
Heartbeat CPU 0 instructions: 5000000 cycles: 1992324 heartbeat IPC: 2.81967 cumulative IPC: 2.50963 (Simulation time: 0 hr 6 min 58 sec) 
Heartbeat CPU 0 instructions: 6000003 cycles: 2406749 heartbeat IPC: 2.41299 cumulative IPC: 2.49299 (Simulation time: 0 hr 8 min 25 sec) 
Heartbeat CPU 0 instructions: 7000002 cycles: 2815526 heartbeat IPC: 2.44632 cumulative IPC: 2.48621 (Simulation time: 0 hr 9 min 55 sec) 
Heartbeat CPU 0 instructions: 8000000 cycles: 3291701 heartbeat IPC: 2.10006 cumulative IPC: 2.43035 (Simulation time: 0 hr 11 min 14 sec) 
Heartbeat CPU 0 instructions: 9000001 cycles: 3630701 heartbeat IPC: 2.94986 cumulative IPC: 2.47886 (Simulation time: 0 hr 12 min 29 sec) 
Heartbeat CPU 0 instructions: 10000000 cycles: 3984781 heartbeat IPC: 2.82422 cumulative IPC: 2.50955 (Simulation time: 0 hr 13 min 43 sec) 

Warmup complete CPU 0 instructions: 10000004 cycles: 3984782 (Simulation time: 0 hr 13 min 43 sec) 

Heartbeat CPU 0 instructions: 11000002 cycles: 5717201 heartbeat IPC: 0.577228 cumulative IPC: 0.577226 (Simulation time: 0 hr 15 min 20 sec) 
Heartbeat CPU 0 instructions: 12000000 cycles: 7337750 heartbeat IPC: 0.617074 cumulative IPC: 0.596485 (Simulation time: 0 hr 16 min 58 sec) 
Heartbeat CPU 0 instructions: 13000001 cycles: 8521901 heartbeat IPC: 0.844488 cumulative IPC: 0.661212 (Simulation time: 0 hr 18 min 21 sec) 
Heartbeat CPU 0 instructions: 14000002 cycles: 9236897 heartbeat IPC: 1.39861 cumulative IPC: 0.761598 (Simulation time: 0 hr 19 min 36 sec) 
Heartbeat CPU 0 instructions: 15000000 cycles: 10098309 heartbeat IPC: 1.16088 cumulative IPC: 0.817858 (Simulation time: 0 hr 20 min 52 sec) 
Heartbeat CPU 0 instructions: 16000000 cycles: 11812223 heartbeat IPC: 0.58346 cumulative IPC: 0.766534 (Simulation time: 0 hr 22 min 22 sec) 
Heartbeat CPU 0 instructions: 17000000 cycles: 13421500 heartbeat IPC: 0.621397 cumulative IPC: 0.741783 (Simulation time: 0 hr 23 min 51 sec) 
Heartbeat CPU 0 instructions: 18000002 cycles: 14705892 heartbeat IPC: 0.77858 cumulative IPC: 0.746191 (Simulation time: 0 hr 25 min 20 sec) 
Heartbeat CPU 0 instructions: 19000003 cycles: 15504649 heartbeat IPC: 1.25195 cumulative IPC: 0.781259 (Simulation time: 0 hr 26 min 38 sec) 
Heartbeat CPU 0 instructions: 20000000 cycles: 16258998 heartbeat IPC: 1.32564 cumulative IPC: 0.814716 (Simulation time: 0 hr 27 min 53 sec) 
Heartbeat CPU 0 instructions: 21000000 cycles: 17857246 heartbeat IPC: 0.625685 cumulative IPC: 0.792937 (Simulation time: 0 hr 29 min 25 sec) 
Heartbeat CPU 0 instructions: 22000002 cycles: 19496946 heartbeat IPC: 0.609869 cumulative IPC: 0.773586 (Simulation time: 0 hr 30 min 56 sec) 
Heartbeat CPU 0 instructions: 23000003 cycles: 21030391 heartbeat IPC: 0.652127 cumulative IPC: 0.76266 (Simulation time: 0 hr 32 min 23 sec) 
Heartbeat CPU 0 instructions: 24000000 cycles: 21932180 heartbeat IPC: 1.1089 cumulative IPC: 0.780057 (Simulation time: 0 hr 33 min 45 sec) 
Heartbeat CPU 0 instructions: 25000001 cycles: 22725622 heartbeat IPC: 1.26033 cumulative IPC: 0.800391 (Simulation time: 0 hr 35 min 2 sec) 
Heartbeat CPU 0 instructions: 26000001 cycles: 23966378 heartbeat IPC: 0.80596 cumulative IPC: 0.800737 (Simulation time: 0 hr 36 min 23 sec) 
Heartbeat CPU 0 instructions: 27000001 cycles: 25598683 heartbeat IPC: 0.612631 cumulative IPC: 0.786531 (Simulation time: 0 hr 37 min 52 sec) 
Heartbeat CPU 0 instructions: 28000000 cycles: 27195300 heartbeat IPC: 0.626324 cumulative IPC: 0.77551 (Simulation time: 0 hr 39 min 22 sec) 
Heartbeat CPU 0 instructions: 29000000 cycles: 28211703 heartbeat IPC: 0.983862 cumulative IPC: 0.784251 (Simulation time: 0 hr 40 min 48 sec) 
Heartbeat CPU 0 instructions: 30000002 cycles: 29021844 heartbeat IPC: 1.23436 cumulative IPC: 0.798816 (Simulation time: 0 hr 42 min 7 sec) 
Heartbeat CPU 0 instructions: 31000003 cycles: 30106941 heartbeat IPC: 0.921578 cumulative IPC: 0.803915 (Simulation time: 0 hr 43 min 35 sec) 
Heartbeat CPU 0 instructions: 32000000 cycles: 31739728 heartbeat IPC: 0.612448 cumulative IPC: 0.792651 (Simulation time: 0 hr 45 min 7 sec) 
Heartbeat CPU 0 instructions: 33000000 cycles: 33298908 heartbeat IPC: 0.641363 cumulative IPC: 0.784605 (Simulation time: 0 hr 46 min 33 sec) 
Heartbeat CPU 0 instructions: 34000000 cycles: 34408126 heartbeat IPC: 0.901536 cumulative IPC: 0.788868 (Simulation time: 0 hr 47 min 54 sec) 
Heartbeat CPU 0 instructions: 35000003 cycles: 35217159 heartbeat IPC: 1.23605 cumulative IPC: 0.800451 (Simulation time: 0 hr 49 min 13 sec) 
Heartbeat CPU 0 instructions: 36000000 cycles: 36252103 heartbeat IPC: 0.966233 cumulative IPC: 0.805769 (Simulation time: 0 hr 50 min 38 sec) 
Heartbeat CPU 0 instructions: 37000001 cycles: 37899550 heartbeat IPC: 0.607 cumulative IPC: 0.796113 (Simulation time: 0 hr 52 min 10 sec) 
Heartbeat CPU 0 instructions: 38000000 cycles: 39465126 heartbeat IPC: 0.638742 cumulative IPC: 0.789169 (Simulation time: 0 hr 53 min 42 sec) 
Heartbeat CPU 0 instructions: 39000003 cycles: 40574583 heartbeat IPC: 0.901345 cumulative IPC: 0.792571 (Simulation time: 0 hr 55 min 10 sec) 
Heartbeat CPU 0 instructions: 40000000 cycles: 41392085 heartbeat IPC: 1.22323 cumulative IPC: 0.801982 (Simulation time: 0 hr 56 min 30 sec) 
Heartbeat CPU 0 instructions: 41000003 cycles: 42421009 heartbeat IPC: 0.971892 cumulative IPC: 0.806531 (Simulation time: 0 hr 57 min 52 sec) 
Heartbeat CPU 0 instructions: 42000000 cycles: 44079155 heartbeat IPC: 0.603081 cumulative IPC: 0.798117 (Simulation time: 0 hr 59 min 24 sec) 
Heartbeat CPU 0 instructions: 43000003 cycles: 45671729 heartbeat IPC: 0.627916 cumulative IPC: 0.791615 (Simulation time: 1 hr 0 min 56 sec) 
Heartbeat CPU 0 instructions: 44000000 cycles: 46705767 heartbeat IPC: 0.96708 cumulative IPC: 0.795862 (Simulation time: 1 hr 2 min 19 sec) 
Heartbeat CPU 0 instructions: 45000002 cycles: 47525065 heartbeat IPC: 1.22056 cumulative IPC: 0.803853 (Simulation time: 1 hr 3 min 38 sec) 
Heartbeat CPU 0 instructions: 46000001 cycles: 48592857 heartbeat IPC: 0.936511 cumulative IPC: 0.807029 (Simulation time: 1 hr 5 min 6 sec) 
Heartbeat CPU 0 instructions: 47000002 cycles: 50234181 heartbeat IPC: 0.609265 cumulative IPC: 0.80001 (Simulation time: 1 hr 6 min 40 sec) 
Heartbeat CPU 0 instructions: 48000000 cycles: 51820713 heartbeat IPC: 0.630304 cumulative IPC: 0.794382 (Simulation time: 1 hr 8 min 8 sec) 
Heartbeat CPU 0 instructions: 49000001 cycles: 52767774 heartbeat IPC: 1.0559 cumulative IPC: 0.799459 (Simulation time: 1 hr 9 min 34 sec) 
Heartbeat CPU 0 instructions: 50000000 cycles: 53585586 heartbeat IPC: 1.22277 cumulative IPC: 0.806438 (Simulation time: 1 hr 11 min 3 sec) 
Heartbeat CPU 0 instructions: 51000003 cycles: 54719400 heartbeat IPC: 0.881982 cumulative IPC: 0.808127 (Simulation time: 1 hr 12 min 32 sec) 
Heartbeat CPU 0 instructions: 52000000 cycles: 56399132 heartbeat IPC: 0.595331 cumulative IPC: 0.801307 (Simulation time: 1 hr 14 min 8 sec) 
Heartbeat CPU 0 instructions: 53000000 cycles: 58194716 heartbeat IPC: 0.556922 cumulative IPC: 0.793212 (Simulation time: 1 hr 15 min 44 sec) 
Heartbeat CPU 0 instructions: 54000003 cycles: 59476708 heartbeat IPC: 0.780038 cumulative IPC: 0.792908 (Simulation time: 1 hr 17 min 15 sec) 
Heartbeat CPU 0 instructions: 55000003 cycles: 60344687 heartbeat IPC: 1.1521 cumulative IPC: 0.79844 (Simulation time: 1 hr 18 min 33 sec) 
Heartbeat CPU 0 instructions: 56000000 cycles: 61216949 heartbeat IPC: 1.14644 cumulative IPC: 0.803744 (Simulation time: 1 hr 19 min 57 sec) 
Heartbeat CPU 0 instructions: 57000002 cycles: 62401251 heartbeat IPC: 0.844381 cumulative IPC: 0.804568 (Simulation time: 1 hr 21 min 22 sec) 
Heartbeat CPU 0 instructions: 58000001 cycles: 63438213 heartbeat IPC: 0.964355 cumulative IPC: 0.807355 (Simulation time: 1 hr 22 min 42 sec) 
Heartbeat CPU 0 instructions: 59000003 cycles: 64288105 heartbeat IPC: 1.17662 cumulative IPC: 0.812559 (Simulation time: 1 hr 24 min 3 sec) 
Heartbeat CPU 0 instructions: 60000000 cycles: 65183878 heartbeat IPC: 1.11635 cumulative IPC: 0.817005 (Simulation time: 1 hr 25 min 24 sec) 
Heartbeat CPU 0 instructions: 61000001 cycles: 66406099 heartbeat IPC: 0.818183 cumulative IPC: 0.817029 (Simulation time: 1 hr 26 min 46 sec) 
Heartbeat CPU 0 instructions: 62000001 cycles: 67255057 heartbeat IPC: 1.17791 cumulative IPC: 0.821871 (Simulation time: 1 hr 28 min 2 sec) 
Heartbeat CPU 0 instructions: 63000003 cycles: 68087213 heartbeat IPC: 1.2017 cumulative IPC: 0.826802 (Simulation time: 1 hr 29 min 21 sec) 
Heartbeat CPU 0 instructions: 64000000 cycles: 69370575 heartbeat IPC: 0.779201 cumulative IPC: 0.825867 (Simulation time: 1 hr 30 min 47 sec) 
Heartbeat CPU 0 instructions: 65000003 cycles: 70234229 heartbeat IPC: 1.15787 cumulative IPC: 0.830196 (Simulation time: 1 hr 32 min 4 sec) 
Heartbeat CPU 0 instructions: 66000002 cycles: 71084393 heartbeat IPC: 1.17624 cumulative IPC: 0.83458 (Simulation time: 1 hr 33 min 23 sec) 
Heartbeat CPU 0 instructions: 67000000 cycles: 72344091 heartbeat IPC: 0.793839 cumulative IPC: 0.833829 (Simulation time: 1 hr 34 min 51 sec) 
Heartbeat CPU 0 instructions: 68000000 cycles: 74002379 heartbeat IPC: 0.603032 cumulative IPC: 0.828363 (Simulation time: 1 hr 36 min 20 sec) 
Heartbeat CPU 0 instructions: 69000003 cycles: 74863088 heartbeat IPC: 1.16184 cumulative IPC: 0.832413 (Simulation time: 1 hr 37 min 41 sec) 
Heartbeat CPU 0 instructions: 70000000 cycles: 75719426 heartbeat IPC: 1.16776 cumulative IPC: 0.836416 (Simulation time: 1 hr 38 min 59 sec) 
Heartbeat CPU 0 instructions: 71000000 cycles: 76888387 heartbeat IPC: 0.855461 cumulative IPC: 0.836721 (Simulation time: 1 hr 40 min 24 sec) 
Heartbeat CPU 0 instructions: 72000000 cycles: 78392010 heartbeat IPC: 0.66506 cumulative IPC: 0.833252 (Simulation time: 1 hr 41 min 49 sec) 
Heartbeat CPU 0 instructions: 73000000 cycles: 79242954 heartbeat IPC: 1.17517 cumulative IPC: 0.837118 (Simulation time: 1 hr 43 min 9 sec) 
Heartbeat CPU 0 instructions: 74000000 cycles: 80096757 heartbeat IPC: 1.17123 cumulative IPC: 0.840866 (Simulation time: 1 hr 44 min 28 sec) 
Heartbeat CPU 0 instructions: 75000000 cycles: 81322685 heartbeat IPC: 0.815709 cumulative IPC: 0.840468 (Simulation time: 1 hr 45 min 56 sec) 
Heartbeat CPU 0 instructions: 76000000 cycles: 82638849 heartbeat IPC: 0.759784 cumulative IPC: 0.839117 (Simulation time: 1 hr 47 min 20 sec) 
Heartbeat CPU 0 instructions: 77000003 cycles: 83510409 heartbeat IPC: 1.14737 cumulative IPC: 0.842496 (Simulation time: 1 hr 48 min 41 sec) 
Heartbeat CPU 0 instructions: 78000000 cycles: 84359073 heartbeat IPC: 1.17832 cumulative IPC: 0.846042 (Simulation time: 1 hr 50 min 1 sec) 
Heartbeat CPU 0 instructions: 79000001 cycles: 85742489 heartbeat IPC: 0.722849 cumulative IPC: 0.843957 (Simulation time: 1 hr 51 min 29 sec) 
Heartbeat CPU 0 instructions: 80000000 cycles: 86910791 heartbeat IPC: 0.855942 cumulative IPC: 0.844126 (Simulation time: 1 hr 52 min 47 sec) 
Heartbeat CPU 0 instructions: 81000000 cycles: 87776558 heartbeat IPC: 1.15505 cumulative IPC: 0.847338 (Simulation time: 1 hr 54 min 8 sec) 
Heartbeat CPU 0 instructions: 82000000 cycles: 88608832 heartbeat IPC: 1.20153 cumulative IPC: 0.850822 (Simulation time: 1 hr 55 min 29 sec) 
Heartbeat CPU 0 instructions: 83000000 cycles: 90111511 heartbeat IPC: 0.665478 cumulative IPC: 0.847588 (Simulation time: 1 hr 57 min 0 sec) 
Heartbeat CPU 0 instructions: 84000000 cycles: 91012233 heartbeat IPC: 1.11022 cumulative IPC: 0.850306 (Simulation time: 1 hr 58 min 16 sec) 
Heartbeat CPU 0 instructions: 85000001 cycles: 91853794 heartbeat IPC: 1.18827 cumulative IPC: 0.853543 (Simulation time: 1 hr 59 min 34 sec) 
Heartbeat CPU 0 instructions: 86000001 cycles: 92918361 heartbeat IPC: 0.939349 cumulative IPC: 0.85457 (Simulation time: 2 hr 0 min 56 sec) 
Heartbeat CPU 0 instructions: 87000000 cycles: 94139335 heartbeat IPC: 0.819017 cumulative IPC: 0.854089 (Simulation time: 2 hr 2 min 19 sec) 
Heartbeat CPU 0 instructions: 88000000 cycles: 94997403 heartbeat IPC: 1.16541 cumulative IPC: 0.857024 (Simulation time: 2 hr 3 min 39 sec) 
Heartbeat CPU 0 instructions: 89000000 cycles: 95823656 heartbeat IPC: 1.21028 cumulative IPC: 0.860202 (Simulation time: 2 hr 4 min 56 sec) 
Heartbeat CPU 0 instructions: 90000000 cycles: 97201151 heartbeat IPC: 0.725955 cumulative IPC: 0.858218 (Simulation time: 2 hr 6 min 19 sec) 
Heartbeat CPU 0 instructions: 91000003 cycles: 98449170 heartbeat IPC: 0.801272 cumulative IPC: 0.857466 (Simulation time: 2 hr 7 min 40 sec) 
Heartbeat CPU 0 instructions: 92000000 cycles: 99400308 heartbeat IPC: 1.05137 cumulative IPC: 0.859399 (Simulation time: 2 hr 8 min 54 sec) 
Heartbeat CPU 0 instructions: 93000000 cycles: 100235706 heartbeat IPC: 1.19703 cumulative IPC: 0.862329 (Simulation time: 2 hr 10 min 16 sec) 
Heartbeat CPU 0 instructions: 94000002 cycles: 101070862 heartbeat IPC: 1.19738 cumulative IPC: 0.865212 (Simulation time: 2 hr 11 min 31 sec) 
Heartbeat CPU 0 instructions: 95000001 cycles: 102517209 heartbeat IPC: 0.691396 cumulative IPC: 0.86266 (Simulation time: 2 hr 12 min 48 sec) 
Heartbeat CPU 0 instructions: 96000000 cycles: 103361853 heartbeat IPC: 1.18393 cumulative IPC: 0.865391 (Simulation time: 2 hr 14 min 5 sec) 
Heartbeat CPU 0 instructions: 97000002 cycles: 104208979 heartbeat IPC: 1.18046 cumulative IPC: 0.868054 (Simulation time: 2 hr 15 min 24 sec) 
Heartbeat CPU 0 instructions: 98000003 cycles: 105443667 heartbeat IPC: 0.809922 cumulative IPC: 0.867346 (Simulation time: 2 hr 16 min 43 sec) 
Heartbeat CPU 0 instructions: 99000000 cycles: 106530237 heartbeat IPC: 0.920325 cumulative IPC: 0.867908 (Simulation time: 2 hr 17 min 55 sec) 
Heartbeat CPU 0 instructions: 100000000 cycles: 107366649 heartbeat IPC: 1.19558 cumulative IPC: 0.870559 (Simulation time: 2 hr 19 min 11 sec) 
Heartbeat CPU 0 instructions: 101000000 cycles: 108206140 heartbeat IPC: 1.1912 cumulative IPC: 0.873142 (Simulation time: 2 hr 20 min 25 sec) 
Heartbeat CPU 0 instructions: 102000003 cycles: 109758128 heartbeat IPC: 0.644337 cumulative IPC: 0.869784 (Simulation time: 2 hr 21 min 45 sec) 
Heartbeat CPU 0 instructions: 103000000 cycles: 110683575 heartbeat IPC: 1.08056 cumulative IPC: 0.871612 (Simulation time: 2 hr 22 min 56 sec) 
Heartbeat CPU 0 instructions: 104000000 cycles: 111529515 heartbeat IPC: 1.18212 cumulative IPC: 0.874055 (Simulation time: 2 hr 24 min 10 sec) 
Heartbeat CPU 0 instructions: 105000002 cycles: 112645433 heartbeat IPC: 0.896125 cumulative IPC: 0.874282 (Simulation time: 2 hr 25 min 21 sec) 
Heartbeat CPU 0 instructions: 106000003 cycles: 114158592 heartbeat IPC: 0.66087 cumulative IPC: 0.87135 (Simulation time: 2 hr 26 min 28 sec) 
Heartbeat CPU 0 instructions: 107000001 cycles: 115012564 heartbeat IPC: 1.171 cumulative IPC: 0.873655 (Simulation time: 2 hr 27 min 27 sec) 
Heartbeat CPU 0 instructions: 108000000 cycles: 115862823 heartbeat IPC: 1.17611 cumulative IPC: 0.875954 (Simulation time: 2 hr 28 min 26 sec) 
Heartbeat CPU 0 instructions: 109000001 cycles: 117047345 heartbeat IPC: 0.844223 cumulative IPC: 0.875621 (Simulation time: 2 hr 29 min 18 sec) 
Heartbeat CPU 0 instructions: 110000000 cycles: 118460542 heartbeat IPC: 0.707615 cumulative IPC: 0.873547 (Simulation time: 2 hr 30 min 12 sec) 
Finished CPU 0 instructions: 100000000 cycles: 114475761 cummulative IPC: 0.873547 (Simulation time: 2 hr 30 min 12 sec) 

ChampSim completed all CPUs

Region of Interest Statistics

CPU 0 cummulative IPC: 0.873547 instructions: 100000000 cycles: 114475761
LLC TOTAL     ACCESS:    1795726  HIT:     693020  MISS:    1102706
LLC LOAD      ACCESS:     315496  HIT:     202097  MISS:     113399
LLC RFO       ACCESS:      99609  HIT:      79548  MISS:      20061
LLC PREFETCH  ACCESS:    1239200  HIT:     280501  MISS:     958699
LLC WRITEBACK ACCESS:     141421  HIT:     130874  MISS:      10547
Insertion Distribution: 
	LOAD 10760 0 0 0 0 0 0 0 0 0 0 0 0 0 22249 104809 
	RFO 10565 0 0 0 0 0 0 0 0 0 0 0 0 0 3545 9797 
	PREF 0 4214 0 0 0 0 0 0 0 0 0 0 0 0 70201 992284 
	WRITEBACK 0 0 0 0 0 0 0 0 0 0 0 0 0 0 0 11694 
Total Prefetch Downgrades: 6691
