
*** ChampSim Multicore Out-of-Order Simulator ***

Warmup Instructions: 10000000
Simulation Instructions: 100000000
Configuration: 2
Number of CPUs: 1
LLC sets: 2048
LLC ways: 16
Off-chip DRAM Channels: 1 Width: 64-bit Data Rate: 1600 MT/s

CPU 0 runs /datasets/cs240c-wi22-a00-public/data/Assignment2-gz/wrf_1228B.trace.gz
CPU 0 L1D next line prefetcher
CPU 0 L2C IP-based stride prefetcher
Initialize SRRIP state
Heartbeat CPU 0 instructions: 1000003 cycles: 591063 heartbeat IPC: 1.69187 cumulative IPC: 1.69187 (Simulation time: 0 hr 1 min 42 sec) 
Heartbeat CPU 0 instructions: 2000003 cycles: 1111219 heartbeat IPC: 1.9225 cumulative IPC: 1.79983 (Simulation time: 0 hr 3 min 20 sec) 
Heartbeat CPU 0 instructions: 3000000 cycles: 1729185 heartbeat IPC: 1.61821 cumulative IPC: 1.73492 (Simulation time: 0 hr 5 min 9 sec) 
Heartbeat CPU 0 instructions: 4000000 cycles: 2349837 heartbeat IPC: 1.61121 cumulative IPC: 1.70225 (Simulation time: 0 hr 6 min 51 sec) 
Heartbeat CPU 0 instructions: 5000000 cycles: 3052201 heartbeat IPC: 1.42376 cumulative IPC: 1.63816 (Simulation time: 0 hr 8 min 32 sec) 
Heartbeat CPU 0 instructions: 6000000 cycles: 3612288 heartbeat IPC: 1.78544 cumulative IPC: 1.661 (Simulation time: 0 hr 10 min 10 sec) 
Heartbeat CPU 0 instructions: 7000001 cycles: 4165046 heartbeat IPC: 1.80911 cumulative IPC: 1.68065 (Simulation time: 0 hr 11 min 42 sec) 
Heartbeat CPU 0 instructions: 8000000 cycles: 4716412 heartbeat IPC: 1.81368 cumulative IPC: 1.6962 (Simulation time: 0 hr 13 min 16 sec) 
Heartbeat CPU 0 instructions: 9000002 cycles: 5266596 heartbeat IPC: 1.81758 cumulative IPC: 1.70888 (Simulation time: 0 hr 14 min 48 sec) 
Heartbeat CPU 0 instructions: 10000001 cycles: 5819494 heartbeat IPC: 1.80865 cumulative IPC: 1.71836 (Simulation time: 0 hr 16 min 22 sec) 

Warmup complete CPU 0 instructions: 10000001 cycles: 5819494 (Simulation time: 0 hr 16 min 22 sec) 

Heartbeat CPU 0 instructions: 11000003 cycles: 6773951 heartbeat IPC: 1.04772 cumulative IPC: 1.04772 (Simulation time: 0 hr 17 min 57 sec) 
Heartbeat CPU 0 instructions: 12000000 cycles: 7761263 heartbeat IPC: 1.01285 cumulative IPC: 1.02999 (Simulation time: 0 hr 19 min 27 sec) 
Heartbeat CPU 0 instructions: 13000003 cycles: 8744986 heartbeat IPC: 1.01655 cumulative IPC: 1.02547 (Simulation time: 0 hr 20 min 56 sec) 
Heartbeat CPU 0 instructions: 14000002 cycles: 9691849 heartbeat IPC: 1.05612 cumulative IPC: 1.03296 (Simulation time: 0 hr 22 min 21 sec) 
Heartbeat CPU 0 instructions: 15000001 cycles: 10539887 heartbeat IPC: 1.17919 cumulative IPC: 1.05923 (Simulation time: 0 hr 23 min 38 sec) 
Heartbeat CPU 0 instructions: 16000000 cycles: 11382895 heartbeat IPC: 1.18623 cumulative IPC: 1.07848 (Simulation time: 0 hr 25 min 3 sec) 
Heartbeat CPU 0 instructions: 17000002 cycles: 12279654 heartbeat IPC: 1.11513 cumulative IPC: 1.08356 (Simulation time: 0 hr 26 min 21 sec) 
Heartbeat CPU 0 instructions: 18000003 cycles: 13182021 heartbeat IPC: 1.1082 cumulative IPC: 1.08658 (Simulation time: 0 hr 27 min 38 sec) 
Heartbeat CPU 0 instructions: 19000000 cycles: 14069053 heartbeat IPC: 1.12735 cumulative IPC: 1.09097 (Simulation time: 0 hr 28 min 57 sec) 
Heartbeat CPU 0 instructions: 20000000 cycles: 14966957 heartbeat IPC: 1.1137 cumulative IPC: 1.0932 (Simulation time: 0 hr 30 min 16 sec) 
Heartbeat CPU 0 instructions: 21000000 cycles: 15879453 heartbeat IPC: 1.0959 cumulative IPC: 1.09344 (Simulation time: 0 hr 31 min 39 sec) 
Heartbeat CPU 0 instructions: 22000000 cycles: 16813379 heartbeat IPC: 1.07075 cumulative IPC: 1.09152 (Simulation time: 0 hr 33 min 0 sec) 
Heartbeat CPU 0 instructions: 23000003 cycles: 17732810 heartbeat IPC: 1.08763 cumulative IPC: 1.09122 (Simulation time: 0 hr 34 min 25 sec) 
Heartbeat CPU 0 instructions: 24000000 cycles: 18660503 heartbeat IPC: 1.07794 cumulative IPC: 1.09026 (Simulation time: 0 hr 35 min 49 sec) 
Heartbeat CPU 0 instructions: 25000000 cycles: 19653873 heartbeat IPC: 1.00667 cumulative IPC: 1.08426 (Simulation time: 0 hr 37 min 21 sec) 
Heartbeat CPU 0 instructions: 26000003 cycles: 20675783 heartbeat IPC: 0.978563 cumulative IPC: 1.07699 (Simulation time: 0 hr 38 min 53 sec) 
Heartbeat CPU 0 instructions: 27000003 cycles: 21721973 heartbeat IPC: 0.955849 cumulative IPC: 1.06902 (Simulation time: 0 hr 40 min 29 sec) 
Heartbeat CPU 0 instructions: 28000000 cycles: 22794773 heartbeat IPC: 0.932137 cumulative IPC: 1.06037 (Simulation time: 0 hr 42 min 1 sec) 
Heartbeat CPU 0 instructions: 29000003 cycles: 24244153 heartbeat IPC: 0.689952 cumulative IPC: 1.03123 (Simulation time: 0 hr 43 min 44 sec) 
Heartbeat CPU 0 instructions: 30000000 cycles: 25777017 heartbeat IPC: 0.652372 cumulative IPC: 1.00213 (Simulation time: 0 hr 45 min 29 sec) 
Heartbeat CPU 0 instructions: 31000003 cycles: 27501568 heartbeat IPC: 0.579863 cumulative IPC: 0.968542 (Simulation time: 0 hr 47 min 11 sec) 
Heartbeat CPU 0 instructions: 32000000 cycles: 29274580 heartbeat IPC: 0.56401 cumulative IPC: 0.937963 (Simulation time: 0 hr 48 min 59 sec) 
Heartbeat CPU 0 instructions: 33000001 cycles: 30643377 heartbeat IPC: 0.730569 cumulative IPC: 0.926527 (Simulation time: 0 hr 50 min 42 sec) 
Heartbeat CPU 0 instructions: 34000002 cycles: 32079262 heartbeat IPC: 0.696435 cumulative IPC: 0.913946 (Simulation time: 0 hr 52 min 26 sec) 
Heartbeat CPU 0 instructions: 35000001 cycles: 33856208 heartbeat IPC: 0.562763 cumulative IPC: 0.891688 (Simulation time: 0 hr 54 min 21 sec) 
Heartbeat CPU 0 instructions: 36000000 cycles: 34799046 heartbeat IPC: 1.06063 cumulative IPC: 0.897184 (Simulation time: 0 hr 55 min 52 sec) 
Heartbeat CPU 0 instructions: 37000001 cycles: 35729465 heartbeat IPC: 1.07479 cumulative IPC: 0.902709 (Simulation time: 0 hr 57 min 23 sec) 
Heartbeat CPU 0 instructions: 38000003 cycles: 36656743 heartbeat IPC: 1.07843 cumulative IPC: 0.907993 (Simulation time: 0 hr 58 min 54 sec) 
Heartbeat CPU 0 instructions: 39000002 cycles: 37611448 heartbeat IPC: 1.04744 cumulative IPC: 0.912181 (Simulation time: 1 hr 0 min 27 sec) 
Heartbeat CPU 0 instructions: 40000000 cycles: 38554823 heartbeat IPC: 1.06002 cumulative IPC: 0.916441 (Simulation time: 1 hr 2 min 7 sec) 
Heartbeat CPU 0 instructions: 41000000 cycles: 39515126 heartbeat IPC: 1.04134 cumulative IPC: 0.92 (Simulation time: 1 hr 3 min 36 sec) 
Heartbeat CPU 0 instructions: 42000002 cycles: 40475769 heartbeat IPC: 1.04097 cumulative IPC: 0.923354 (Simulation time: 1 hr 5 min 7 sec) 
Heartbeat CPU 0 instructions: 43000002 cycles: 41460129 heartbeat IPC: 1.01589 cumulative IPC: 0.925909 (Simulation time: 1 hr 6 min 38 sec) 
Heartbeat CPU 0 instructions: 44000000 cycles: 42340643 heartbeat IPC: 1.1357 cumulative IPC: 0.930967 (Simulation time: 1 hr 7 min 59 sec) 
Heartbeat CPU 0 instructions: 45000000 cycles: 43189071 heartbeat IPC: 1.17865 cumulative IPC: 0.936591 (Simulation time: 1 hr 9 min 20 sec) 
Heartbeat CPU 0 instructions: 46000001 cycles: 44055254 heartbeat IPC: 1.15449 cumulative IPC: 0.941527 (Simulation time: 1 hr 10 min 46 sec) 
Heartbeat CPU 0 instructions: 47000001 cycles: 44933271 heartbeat IPC: 1.13893 cumulative IPC: 0.945958 (Simulation time: 1 hr 12 min 4 sec) 
Heartbeat CPU 0 instructions: 48000000 cycles: 45808435 heartbeat IPC: 1.14264 cumulative IPC: 0.950263 (Simulation time: 1 hr 13 min 28 sec) 
Heartbeat CPU 0 instructions: 49000001 cycles: 46700700 heartbeat IPC: 1.12074 cumulative IPC: 0.953984 (Simulation time: 1 hr 14 min 51 sec) 
Heartbeat CPU 0 instructions: 50000002 cycles: 47609719 heartbeat IPC: 1.10009 cumulative IPC: 0.957162 (Simulation time: 1 hr 16 min 16 sec) 
Heartbeat CPU 0 instructions: 51000001 cycles: 48521601 heartbeat IPC: 1.09663 cumulative IPC: 0.96014 (Simulation time: 1 hr 17 min 39 sec) 
Heartbeat CPU 0 instructions: 52000000 cycles: 49480472 heartbeat IPC: 1.04289 cumulative IPC: 0.961957 (Simulation time: 1 hr 19 min 4 sec) 
Heartbeat CPU 0 instructions: 53000002 cycles: 50470643 heartbeat IPC: 1.00993 cumulative IPC: 0.963021 (Simulation time: 1 hr 20 min 32 sec) 
Heartbeat CPU 0 instructions: 54000001 cycles: 51454792 heartbeat IPC: 1.01611 cumulative IPC: 0.964166 (Simulation time: 1 hr 22 min 0 sec) 
Heartbeat CPU 0 instructions: 55000001 cycles: 52439092 heartbeat IPC: 1.01595 cumulative IPC: 0.965259 (Simulation time: 1 hr 23 min 30 sec) 
Heartbeat CPU 0 instructions: 56000000 cycles: 53447093 heartbeat IPC: 0.992061 cumulative IPC: 0.965827 (Simulation time: 1 hr 25 min 2 sec) 
Heartbeat CPU 0 instructions: 57000001 cycles: 54458150 heartbeat IPC: 0.989065 cumulative IPC: 0.96631 (Simulation time: 1 hr 26 min 31 sec) 
Heartbeat CPU 0 instructions: 58000003 cycles: 55494218 heartbeat IPC: 0.96519 cumulative IPC: 0.966286 (Simulation time: 1 hr 27 min 57 sec) 
Heartbeat CPU 0 instructions: 59000001 cycles: 57305536 heartbeat IPC: 0.552083 cumulative IPC: 0.951714 (Simulation time: 1 hr 29 min 46 sec) 
Heartbeat CPU 0 instructions: 60000000 cycles: 58892057 heartbeat IPC: 0.630309 cumulative IPC: 0.942106 (Simulation time: 1 hr 31 min 28 sec) 
Heartbeat CPU 0 instructions: 61000000 cycles: 60610535 heartbeat IPC: 0.58191 cumulative IPC: 0.930809 (Simulation time: 1 hr 33 min 6 sec) 
Heartbeat CPU 0 instructions: 62000000 cycles: 62248992 heartbeat IPC: 0.61033 cumulative IPC: 0.921504 (Simulation time: 1 hr 34 min 49 sec) 
Heartbeat CPU 0 instructions: 63000001 cycles: 63636003 heartbeat IPC: 0.720976 cumulative IPC: 0.916693 (Simulation time: 1 hr 36 min 27 sec) 
Heartbeat CPU 0 instructions: 64000000 cycles: 65159026 heartbeat IPC: 0.656588 cumulative IPC: 0.910017 (Simulation time: 1 hr 38 min 10 sec) 
Heartbeat CPU 0 instructions: 65000003 cycles: 66653850 heartbeat IPC: 0.668977 cumulative IPC: 0.904094 (Simulation time: 1 hr 40 min 0 sec) 
Heartbeat CPU 0 instructions: 66000000 cycles: 68149282 heartbeat IPC: 0.668701 cumulative IPC: 0.898447 (Simulation time: 1 hr 41 min 44 sec) 
Heartbeat CPU 0 instructions: 67000000 cycles: 69643802 heartbeat IPC: 0.669111 cumulative IPC: 0.893077 (Simulation time: 1 hr 43 min 31 sec) 
Heartbeat CPU 0 instructions: 68000000 cycles: 71138257 heartbeat IPC: 0.66914 cumulative IPC: 0.887953 (Simulation time: 1 hr 45 min 15 sec) 
Heartbeat CPU 0 instructions: 69000000 cycles: 72645502 heartbeat IPC: 0.663462 cumulative IPC: 0.88289 (Simulation time: 1 hr 47 min 3 sec) 
Heartbeat CPU 0 instructions: 70000001 cycles: 74142079 heartbeat IPC: 0.668192 cumulative IPC: 0.878187 (Simulation time: 1 hr 48 min 53 sec) 
Heartbeat CPU 0 instructions: 71000001 cycles: 75636147 heartbeat IPC: 0.669314 cumulative IPC: 0.873717 (Simulation time: 1 hr 50 min 43 sec) 
Heartbeat CPU 0 instructions: 72000000 cycles: 77119099 heartbeat IPC: 0.67433 cumulative IPC: 0.86957 (Simulation time: 1 hr 52 min 22 sec) 
Heartbeat CPU 0 instructions: 73000003 cycles: 78606807 heartbeat IPC: 0.672177 cumulative IPC: 0.865535 (Simulation time: 1 hr 54 min 10 sec) 
Heartbeat CPU 0 instructions: 74000000 cycles: 80104334 heartbeat IPC: 0.667766 cumulative IPC: 0.861549 (Simulation time: 1 hr 56 min 1 sec) 
Heartbeat CPU 0 instructions: 75000001 cycles: 81598308 heartbeat IPC: 0.669356 cumulative IPC: 0.85776 (Simulation time: 1 hr 57 min 45 sec) 
Heartbeat CPU 0 instructions: 76000000 cycles: 83094743 heartbeat IPC: 0.668254 cumulative IPC: 0.85409 (Simulation time: 1 hr 59 min 30 sec) 
Heartbeat CPU 0 instructions: 77000003 cycles: 84588664 heartbeat IPC: 0.669381 cumulative IPC: 0.850587 (Simulation time: 2 hr 1 min 17 sec) 
Heartbeat CPU 0 instructions: 78000001 cycles: 86083354 heartbeat IPC: 0.669034 cumulative IPC: 0.847206 (Simulation time: 2 hr 3 min 1 sec) 
Heartbeat CPU 0 instructions: 79000000 cycles: 87579785 heartbeat IPC: 0.668256 cumulative IPC: 0.84393 (Simulation time: 2 hr 4 min 46 sec) 
Heartbeat CPU 0 instructions: 80000000 cycles: 89070261 heartbeat IPC: 0.670927 cumulative IPC: 0.840833 (Simulation time: 2 hr 6 min 29 sec) 
Heartbeat CPU 0 instructions: 81000001 cycles: 90554194 heartbeat IPC: 0.673886 cumulative IPC: 0.837909 (Simulation time: 2 hr 8 min 13 sec) 
Heartbeat CPU 0 instructions: 82000000 cycles: 92037233 heartbeat IPC: 0.67429 cumulative IPC: 0.835095 (Simulation time: 2 hr 9 min 58 sec) 
Heartbeat CPU 0 instructions: 83000000 cycles: 93520801 heartbeat IPC: 0.674051 cumulative IPC: 0.832371 (Simulation time: 2 hr 11 min 41 sec) 
Heartbeat CPU 0 instructions: 84000000 cycles: 95015705 heartbeat IPC: 0.668939 cumulative IPC: 0.829632 (Simulation time: 2 hr 13 min 22 sec) 
Heartbeat CPU 0 instructions: 85000000 cycles: 96510587 heartbeat IPC: 0.668949 cumulative IPC: 0.826983 (Simulation time: 2 hr 15 min 4 sec) 
Heartbeat CPU 0 instructions: 86000000 cycles: 98004352 heartbeat IPC: 0.669449 cumulative IPC: 0.82443 (Simulation time: 2 hr 16 min 38 sec) 
Heartbeat CPU 0 instructions: 87000000 cycles: 99499205 heartbeat IPC: 0.668962 cumulative IPC: 0.82195 (Simulation time: 2 hr 18 min 18 sec) 
Heartbeat CPU 0 instructions: 88000000 cycles: 100994421 heartbeat IPC: 0.6688 cumulative IPC: 0.819544 (Simulation time: 2 hr 19 min 59 sec) 
Heartbeat CPU 0 instructions: 89000002 cycles: 102490050 heartbeat IPC: 0.668616 cumulative IPC: 0.817209 (Simulation time: 2 hr 21 min 36 sec) 
Heartbeat CPU 0 instructions: 90000000 cycles: 103974580 heartbeat IPC: 0.673613 cumulative IPC: 0.815037 (Simulation time: 2 hr 23 min 12 sec) 
Heartbeat CPU 0 instructions: 91000000 cycles: 105458199 heartbeat IPC: 0.674028 cumulative IPC: 0.812937 (Simulation time: 2 hr 24 min 43 sec) 
Heartbeat CPU 0 instructions: 92000000 cycles: 106942038 heartbeat IPC: 0.673928 cumulative IPC: 0.810897 (Simulation time: 2 hr 26 min 7 sec) 
Heartbeat CPU 0 instructions: 93000000 cycles: 108431782 heartbeat IPC: 0.671256 cumulative IPC: 0.80887 (Simulation time: 2 hr 27 min 25 sec) 
Heartbeat CPU 0 instructions: 94000003 cycles: 109925638 heartbeat IPC: 0.669411 cumulative IPC: 0.806869 (Simulation time: 2 hr 28 min 40 sec) 
Heartbeat CPU 0 instructions: 95000000 cycles: 111421464 heartbeat IPC: 0.668525 cumulative IPC: 0.804909 (Simulation time: 2 hr 29 min 58 sec) 
Heartbeat CPU 0 instructions: 96000000 cycles: 112915413 heartbeat IPC: 0.669367 cumulative IPC: 0.803018 (Simulation time: 2 hr 31 min 7 sec) 
Heartbeat CPU 0 instructions: 97000001 cycles: 114410966 heartbeat IPC: 0.66865 cumulative IPC: 0.801168 (Simulation time: 2 hr 32 min 13 sec) 
Heartbeat CPU 0 instructions: 98000003 cycles: 115906323 heartbeat IPC: 0.668738 cumulative IPC: 0.799369 (Simulation time: 2 hr 33 min 14 sec) 
Heartbeat CPU 0 instructions: 99000000 cycles: 117395425 heartbeat IPC: 0.671544 cumulative IPC: 0.797663 (Simulation time: 2 hr 34 min 14 sec) 
Heartbeat CPU 0 instructions: 100000000 cycles: 118878817 heartbeat IPC: 0.674131 cumulative IPC: 0.796042 (Simulation time: 2 hr 35 min 10 sec) 
Heartbeat CPU 0 instructions: 101000000 cycles: 120362027 heartbeat IPC: 0.674213 cumulative IPC: 0.794465 (Simulation time: 2 hr 36 min 5 sec) 
Heartbeat CPU 0 instructions: 102000003 cycles: 121845612 heartbeat IPC: 0.674045 cumulative IPC: 0.792925 (Simulation time: 2 hr 37 min 3 sec) 
Heartbeat CPU 0 instructions: 103000003 cycles: 123341873 heartbeat IPC: 0.668333 cumulative IPC: 0.791339 (Simulation time: 2 hr 37 min 53 sec) 
Heartbeat CPU 0 instructions: 104000000 cycles: 124836410 heartbeat IPC: 0.669102 cumulative IPC: 0.789804 (Simulation time: 2 hr 38 min 48 sec) 
Heartbeat CPU 0 instructions: 105000000 cycles: 126331219 heartbeat IPC: 0.668982 cumulative IPC: 0.788305 (Simulation time: 2 hr 39 min 40 sec) 
Heartbeat CPU 0 instructions: 106000000 cycles: 127826279 heartbeat IPC: 0.668869 cumulative IPC: 0.786841 (Simulation time: 2 hr 40 min 30 sec) 
Heartbeat CPU 0 instructions: 107000000 cycles: 129322118 heartbeat IPC: 0.668521 cumulative IPC: 0.785408 (Simulation time: 2 hr 41 min 20 sec) 
Heartbeat CPU 0 instructions: 108000000 cycles: 130817697 heartbeat IPC: 0.668637 cumulative IPC: 0.784011 (Simulation time: 2 hr 42 min 6 sec) 
Heartbeat CPU 0 instructions: 109000003 cycles: 132300559 heartbeat IPC: 0.674374 cumulative IPC: 0.782726 (Simulation time: 2 hr 42 min 51 sec) 
Heartbeat CPU 0 instructions: 110000001 cycles: 133783758 heartbeat IPC: 0.674217 cumulative IPC: 0.781468 (Simulation time: 2 hr 43 min 41 sec) 
Finished CPU 0 instructions: 100000000 cycles: 127964264 cummulative IPC: 0.781468 (Simulation time: 2 hr 43 min 41 sec) 

ChampSim completed all CPUs

Region of Interest Statistics

CPU 0 cummulative IPC: 0.781468 instructions: 100000000 cycles: 127964264
LLC TOTAL     ACCESS:    1495363  HIT:     452094  MISS:    1043269
LLC LOAD      ACCESS:      89163  HIT:      23435  MISS:      65728
LLC RFO       ACCESS:     219210  HIT:      45111  MISS:     174099
LLC PREFETCH  ACCESS:     750841  HIT:     149513  MISS:     601328
LLC WRITEBACK ACCESS:     436149  HIT:     234035  MISS:     202114
Insertion Distribution: 
	LOAD 4218 0 0 0 0 0 0 0 0 0 0 0 0 0 12916 53383 
	RFO 32724 0 0 0 0 0 0 0 0 0 0 0 0 0 61035 155443 
	PREF 0 4308 0 0 0 0 0 0 0 0 0 0 0 0 112785 648715 
	WRITEBACK 0 0 0 0 0 0 0 0 0 0 0 0 0 0 0 256388 
Total Prefetch Downgrades: 3983
