
*** ChampSim Multicore Out-of-Order Simulator ***

Warmup Instructions: 10000000
Simulation Instructions: 100000000
Configuration: 2
Number of CPUs: 1
LLC sets: 2048
LLC ways: 16
Off-chip DRAM Channels: 1 Width: 64-bit Data Rate: 1600 MT/s

CPU 0 runs /datasets/cs240c-wi22-a00-public/data/Assignment2-gz/gcc_56B.trace.gz
CPU 0 L1D next line prefetcher
CPU 0 L2C IP-based stride prefetcher
Initialize SRRIP state
Heartbeat CPU 0 instructions: 1000003 cycles: 954151 heartbeat IPC: 1.04806 cumulative IPC: 1.04806 (Simulation time: 0 hr 1 min 44 sec) 
Heartbeat CPU 0 instructions: 2000001 cycles: 1898349 heartbeat IPC: 1.0591 cumulative IPC: 1.05355 (Simulation time: 0 hr 3 min 27 sec) 
Heartbeat CPU 0 instructions: 3000001 cycles: 2885593 heartbeat IPC: 1.01292 cumulative IPC: 1.03965 (Simulation time: 0 hr 5 min 11 sec) 
Heartbeat CPU 0 instructions: 4000000 cycles: 3848221 heartbeat IPC: 1.03882 cumulative IPC: 1.03944 (Simulation time: 0 hr 6 min 57 sec) 
Heartbeat CPU 0 instructions: 5000002 cycles: 4737701 heartbeat IPC: 1.12425 cumulative IPC: 1.05536 (Simulation time: 0 hr 8 min 36 sec) 
Heartbeat CPU 0 instructions: 6000000 cycles: 5685656 heartbeat IPC: 1.0549 cumulative IPC: 1.05529 (Simulation time: 0 hr 10 min 16 sec) 
Heartbeat CPU 0 instructions: 7000000 cycles: 6649892 heartbeat IPC: 1.03709 cumulative IPC: 1.05265 (Simulation time: 0 hr 11 min 58 sec) 
Heartbeat CPU 0 instructions: 8000000 cycles: 7611115 heartbeat IPC: 1.04034 cumulative IPC: 1.05109 (Simulation time: 0 hr 13 min 37 sec) 
Heartbeat CPU 0 instructions: 9000000 cycles: 8622587 heartbeat IPC: 0.988658 cumulative IPC: 1.04377 (Simulation time: 0 hr 15 min 21 sec) 
Heartbeat CPU 0 instructions: 10000002 cycles: 9583098 heartbeat IPC: 1.04111 cumulative IPC: 1.0435 (Simulation time: 0 hr 17 min 3 sec) 

Warmup complete CPU 0 instructions: 10000002 cycles: 9583098 (Simulation time: 0 hr 17 min 3 sec) 

Heartbeat CPU 0 instructions: 11000000 cycles: 10925644 heartbeat IPC: 0.744852 cumulative IPC: 0.744852 (Simulation time: 0 hr 18 min 36 sec) 
Heartbeat CPU 0 instructions: 12000000 cycles: 12345245 heartbeat IPC: 0.704423 cumulative IPC: 0.724074 (Simulation time: 0 hr 20 min 12 sec) 
Heartbeat CPU 0 instructions: 13000001 cycles: 13726403 heartbeat IPC: 0.724031 cumulative IPC: 0.724059 (Simulation time: 0 hr 21 min 45 sec) 
Heartbeat CPU 0 instructions: 14000000 cycles: 15053234 heartbeat IPC: 0.753675 cumulative IPC: 0.731243 (Simulation time: 0 hr 23 min 26 sec) 
Heartbeat CPU 0 instructions: 15000003 cycles: 16421751 heartbeat IPC: 0.73072 cumulative IPC: 0.731138 (Simulation time: 0 hr 25 min 5 sec) 
Heartbeat CPU 0 instructions: 16000000 cycles: 17740013 heartbeat IPC: 0.758572 cumulative IPC: 0.735572 (Simulation time: 0 hr 26 min 40 sec) 
Heartbeat CPU 0 instructions: 17000001 cycles: 19053423 heartbeat IPC: 0.761378 cumulative IPC: 0.739151 (Simulation time: 0 hr 28 min 18 sec) 
Heartbeat CPU 0 instructions: 18000000 cycles: 20434841 heartbeat IPC: 0.723893 cumulative IPC: 0.737209 (Simulation time: 0 hr 29 min 53 sec) 
Heartbeat CPU 0 instructions: 19000000 cycles: 21802344 heartbeat IPC: 0.73126 cumulative IPC: 0.736543 (Simulation time: 0 hr 31 min 31 sec) 
Heartbeat CPU 0 instructions: 20000000 cycles: 23158727 heartbeat IPC: 0.737255 cumulative IPC: 0.736614 (Simulation time: 0 hr 33 min 9 sec) 
Heartbeat CPU 0 instructions: 21000000 cycles: 24494378 heartbeat IPC: 0.748699 cumulative IPC: 0.737696 (Simulation time: 0 hr 34 min 44 sec) 
Heartbeat CPU 0 instructions: 22000000 cycles: 25812412 heartbeat IPC: 0.758706 cumulative IPC: 0.739403 (Simulation time: 0 hr 36 min 23 sec) 
Heartbeat CPU 0 instructions: 23000000 cycles: 27138862 heartbeat IPC: 0.753892 cumulative IPC: 0.740497 (Simulation time: 0 hr 37 min 58 sec) 
Heartbeat CPU 0 instructions: 24000000 cycles: 28488245 heartbeat IPC: 0.741079 cumulative IPC: 0.740539 (Simulation time: 0 hr 39 min 37 sec) 
Heartbeat CPU 0 instructions: 25000000 cycles: 29849139 heartbeat IPC: 0.734811 cumulative IPC: 0.740154 (Simulation time: 0 hr 41 min 14 sec) 
Heartbeat CPU 0 instructions: 26000002 cycles: 31248602 heartbeat IPC: 0.714561 cumulative IPC: 0.738501 (Simulation time: 0 hr 42 min 56 sec) 
Heartbeat CPU 0 instructions: 27000000 cycles: 32624478 heartbeat IPC: 0.726808 cumulative IPC: 0.737803 (Simulation time: 0 hr 44 min 34 sec) 
Heartbeat CPU 0 instructions: 28000000 cycles: 33952715 heartbeat IPC: 0.752878 cumulative IPC: 0.738625 (Simulation time: 0 hr 46 min 13 sec) 
Heartbeat CPU 0 instructions: 29000000 cycles: 35285285 heartbeat IPC: 0.75043 cumulative IPC: 0.739237 (Simulation time: 0 hr 47 min 52 sec) 
Heartbeat CPU 0 instructions: 30000000 cycles: 36621730 heartbeat IPC: 0.748254 cumulative IPC: 0.739682 (Simulation time: 0 hr 49 min 34 sec) 
Heartbeat CPU 0 instructions: 31000000 cycles: 37966709 heartbeat IPC: 0.743506 cumulative IPC: 0.739864 (Simulation time: 0 hr 51 min 12 sec) 
Heartbeat CPU 0 instructions: 32000000 cycles: 39334519 heartbeat IPC: 0.731096 cumulative IPC: 0.73946 (Simulation time: 0 hr 52 min 49 sec) 
Heartbeat CPU 0 instructions: 33000002 cycles: 40735389 heartbeat IPC: 0.713844 cumulative IPC: 0.738308 (Simulation time: 0 hr 54 min 29 sec) 
Heartbeat CPU 0 instructions: 34000002 cycles: 42092528 heartbeat IPC: 0.736844 cumulative IPC: 0.738247 (Simulation time: 0 hr 56 min 5 sec) 
Heartbeat CPU 0 instructions: 35000002 cycles: 43436515 heartbeat IPC: 0.744055 cumulative IPC: 0.738478 (Simulation time: 0 hr 57 min 44 sec) 
Heartbeat CPU 0 instructions: 36000000 cycles: 44758469 heartbeat IPC: 0.756454 cumulative IPC: 0.739154 (Simulation time: 0 hr 59 min 24 sec) 
Heartbeat CPU 0 instructions: 37000000 cycles: 46066408 heartbeat IPC: 0.764562 cumulative IPC: 0.740064 (Simulation time: 1 hr 1 min 5 sec) 
Heartbeat CPU 0 instructions: 38000002 cycles: 47396380 heartbeat IPC: 0.751897 cumulative IPC: 0.740481 (Simulation time: 1 hr 2 min 42 sec) 
Heartbeat CPU 0 instructions: 39000000 cycles: 48794754 heartbeat IPC: 0.715115 cumulative IPC: 0.739576 (Simulation time: 1 hr 4 min 21 sec) 
Heartbeat CPU 0 instructions: 40000000 cycles: 50154067 heartbeat IPC: 0.735666 cumulative IPC: 0.739445 (Simulation time: 1 hr 6 min 2 sec) 
Heartbeat CPU 0 instructions: 41000001 cycles: 51491549 heartbeat IPC: 0.747674 cumulative IPC: 0.739708 (Simulation time: 1 hr 7 min 42 sec) 
Heartbeat CPU 0 instructions: 42000003 cycles: 52817578 heartbeat IPC: 0.754133 cumulative IPC: 0.74015 (Simulation time: 1 hr 9 min 29 sec) 
Heartbeat CPU 0 instructions: 43000001 cycles: 54150186 heartbeat IPC: 0.750407 cumulative IPC: 0.740457 (Simulation time: 1 hr 11 min 14 sec) 
Heartbeat CPU 0 instructions: 44000000 cycles: 55475403 heartbeat IPC: 0.754593 cumulative IPC: 0.740865 (Simulation time: 1 hr 12 min 54 sec) 
Heartbeat CPU 0 instructions: 45000000 cycles: 56840248 heartbeat IPC: 0.732684 cumulative IPC: 0.740629 (Simulation time: 1 hr 14 min 32 sec) 
Heartbeat CPU 0 instructions: 46000000 cycles: 58230351 heartbeat IPC: 0.719371 cumulative IPC: 0.740021 (Simulation time: 1 hr 16 min 13 sec) 
Heartbeat CPU 0 instructions: 47000002 cycles: 59601821 heartbeat IPC: 0.729146 cumulative IPC: 0.739723 (Simulation time: 1 hr 17 min 52 sec) 
Heartbeat CPU 0 instructions: 48000000 cycles: 60946450 heartbeat IPC: 0.743698 cumulative IPC: 0.739827 (Simulation time: 1 hr 19 min 35 sec) 
Heartbeat CPU 0 instructions: 49000002 cycles: 62272077 heartbeat IPC: 0.754362 cumulative IPC: 0.740193 (Simulation time: 1 hr 21 min 14 sec) 
Heartbeat CPU 0 instructions: 50000000 cycles: 63591741 heartbeat IPC: 0.757767 cumulative IPC: 0.740622 (Simulation time: 1 hr 22 min 56 sec) 
Heartbeat CPU 0 instructions: 51000000 cycles: 64944944 heartbeat IPC: 0.738987 cumulative IPC: 0.740582 (Simulation time: 1 hr 24 min 33 sec) 
Heartbeat CPU 0 instructions: 52000000 cycles: 66335224 heartbeat IPC: 0.71928 cumulative IPC: 0.74006 (Simulation time: 1 hr 26 min 12 sec) 
Heartbeat CPU 0 instructions: 53000001 cycles: 67671102 heartbeat IPC: 0.748572 cumulative IPC: 0.740256 (Simulation time: 1 hr 27 min 46 sec) 
Heartbeat CPU 0 instructions: 54000000 cycles: 68985579 heartbeat IPC: 0.760758 cumulative IPC: 0.74071 (Simulation time: 1 hr 29 min 22 sec) 
Heartbeat CPU 0 instructions: 55000001 cycles: 70291776 heartbeat IPC: 0.765582 cumulative IPC: 0.741245 (Simulation time: 1 hr 30 min 59 sec) 
Heartbeat CPU 0 instructions: 56000000 cycles: 71613855 heartbeat IPC: 0.756384 cumulative IPC: 0.741568 (Simulation time: 1 hr 32 min 35 sec) 
Heartbeat CPU 0 instructions: 57000001 cycles: 72947037 heartbeat IPC: 0.750086 cumulative IPC: 0.741747 (Simulation time: 1 hr 34 min 16 sec) 
Heartbeat CPU 0 instructions: 58000000 cycles: 74320330 heartbeat IPC: 0.728176 cumulative IPC: 0.741459 (Simulation time: 1 hr 35 min 53 sec) 
Heartbeat CPU 0 instructions: 59000000 cycles: 75713203 heartbeat IPC: 0.717941 cumulative IPC: 0.740964 (Simulation time: 1 hr 37 min 31 sec) 
Heartbeat CPU 0 instructions: 60000000 cycles: 77087757 heartbeat IPC: 0.727509 cumulative IPC: 0.74069 (Simulation time: 1 hr 39 min 11 sec) 
Heartbeat CPU 0 instructions: 61000000 cycles: 78417916 heartbeat IPC: 0.75179 cumulative IPC: 0.740904 (Simulation time: 1 hr 40 min 54 sec) 
Heartbeat CPU 0 instructions: 62000002 cycles: 79778061 heartbeat IPC: 0.735217 cumulative IPC: 0.740794 (Simulation time: 1 hr 42 min 31 sec) 
Heartbeat CPU 0 instructions: 63000003 cycles: 81092087 heartbeat IPC: 0.761021 cumulative IPC: 0.741166 (Simulation time: 1 hr 44 min 9 sec) 
Heartbeat CPU 0 instructions: 64000000 cycles: 82410109 heartbeat IPC: 0.75871 cumulative IPC: 0.741483 (Simulation time: 1 hr 45 min 48 sec) 
Heartbeat CPU 0 instructions: 65000000 cycles: 83752171 heartbeat IPC: 0.745122 cumulative IPC: 0.741549 (Simulation time: 1 hr 47 min 25 sec) 
Heartbeat CPU 0 instructions: 66000002 cycles: 85142293 heartbeat IPC: 0.719363 cumulative IPC: 0.741141 (Simulation time: 1 hr 49 min 5 sec) 
Heartbeat CPU 0 instructions: 67000002 cycles: 86527651 heartbeat IPC: 0.721835 cumulative IPC: 0.740793 (Simulation time: 1 hr 50 min 45 sec) 
Heartbeat CPU 0 instructions: 68000000 cycles: 87878495 heartbeat IPC: 0.740276 cumulative IPC: 0.740784 (Simulation time: 1 hr 52 min 19 sec) 
Heartbeat CPU 0 instructions: 69000000 cycles: 89205859 heartbeat IPC: 0.753373 cumulative IPC: 0.740994 (Simulation time: 1 hr 54 min 1 sec) 
Heartbeat CPU 0 instructions: 70000000 cycles: 90532771 heartbeat IPC: 0.75363 cumulative IPC: 0.741201 (Simulation time: 1 hr 55 min 44 sec) 
Heartbeat CPU 0 instructions: 71000003 cycles: 91873725 heartbeat IPC: 0.74574 cumulative IPC: 0.741275 (Simulation time: 1 hr 57 min 25 sec) 
Heartbeat CPU 0 instructions: 72000000 cycles: 93211946 heartbeat IPC: 0.747258 cumulative IPC: 0.741371 (Simulation time: 1 hr 59 min 2 sec) 
Heartbeat CPU 0 instructions: 73000003 cycles: 94578307 heartbeat IPC: 0.731873 cumulative IPC: 0.741218 (Simulation time: 2 hr 0 min 35 sec) 
Heartbeat CPU 0 instructions: 74000001 cycles: 95976274 heartbeat IPC: 0.715323 cumulative IPC: 0.740799 (Simulation time: 2 hr 2 min 14 sec) 
Heartbeat CPU 0 instructions: 75000003 cycles: 97348466 heartbeat IPC: 0.728762 cumulative IPC: 0.740611 (Simulation time: 2 hr 3 min 51 sec) 
Heartbeat CPU 0 instructions: 76000000 cycles: 98689998 heartbeat IPC: 0.745414 cumulative IPC: 0.740683 (Simulation time: 2 hr 5 min 33 sec) 
Heartbeat CPU 0 instructions: 77000003 cycles: 100023297 heartbeat IPC: 0.750022 cumulative IPC: 0.740821 (Simulation time: 2 hr 7 min 10 sec) 
Heartbeat CPU 0 instructions: 78000001 cycles: 101354299 heartbeat IPC: 0.751312 cumulative IPC: 0.740973 (Simulation time: 2 hr 8 min 45 sec) 
Heartbeat CPU 0 instructions: 79000000 cycles: 102709433 heartbeat IPC: 0.737934 cumulative IPC: 0.740929 (Simulation time: 2 hr 10 min 22 sec) 
Heartbeat CPU 0 instructions: 80000000 cycles: 104056000 heartbeat IPC: 0.742629 cumulative IPC: 0.740953 (Simulation time: 2 hr 11 min 54 sec) 
Heartbeat CPU 0 instructions: 81000002 cycles: 105432986 heartbeat IPC: 0.726225 cumulative IPC: 0.740742 (Simulation time: 2 hr 13 min 30 sec) 
Heartbeat CPU 0 instructions: 82000000 cycles: 106803177 heartbeat IPC: 0.729824 cumulative IPC: 0.740588 (Simulation time: 2 hr 15 min 2 sec) 
Heartbeat CPU 0 instructions: 83000003 cycles: 108134203 heartbeat IPC: 0.751302 cumulative IPC: 0.740732 (Simulation time: 2 hr 16 min 33 sec) 
Heartbeat CPU 0 instructions: 84000000 cycles: 109475694 heartbeat IPC: 0.745437 cumulative IPC: 0.740796 (Simulation time: 2 hr 18 min 3 sec) 
Heartbeat CPU 0 instructions: 85000002 cycles: 110789670 heartbeat IPC: 0.76105 cumulative IPC: 0.741059 (Simulation time: 2 hr 19 min 38 sec) 
Heartbeat CPU 0 instructions: 86000003 cycles: 112092304 heartbeat IPC: 0.767676 cumulative IPC: 0.741397 (Simulation time: 2 hr 21 min 7 sec) 
Heartbeat CPU 0 instructions: 87000000 cycles: 113473537 heartbeat IPC: 0.723989 cumulative IPC: 0.741165 (Simulation time: 2 hr 22 min 33 sec) 
Heartbeat CPU 0 instructions: 88000000 cycles: 114823006 heartbeat IPC: 0.741032 cumulative IPC: 0.741164 (Simulation time: 2 hr 24 min 0 sec) 
Heartbeat CPU 0 instructions: 89000000 cycles: 116181966 heartbeat IPC: 0.735857 cumulative IPC: 0.741096 (Simulation time: 2 hr 25 min 23 sec) 
Heartbeat CPU 0 instructions: 90000000 cycles: 117499097 heartbeat IPC: 0.759226 cumulative IPC: 0.741317 (Simulation time: 2 hr 26 min 36 sec) 
Heartbeat CPU 0 instructions: 91000001 cycles: 118806178 heartbeat IPC: 0.765064 cumulative IPC: 0.741601 (Simulation time: 2 hr 27 min 47 sec) 
Heartbeat CPU 0 instructions: 92000000 cycles: 120122659 heartbeat IPC: 0.7596 cumulative IPC: 0.741816 (Simulation time: 2 hr 28 min 47 sec) 
Heartbeat CPU 0 instructions: 93000003 cycles: 121504354 heartbeat IPC: 0.723751 cumulative IPC: 0.741593 (Simulation time: 2 hr 29 min 48 sec) 
Heartbeat CPU 0 instructions: 94000000 cycles: 122846951 heartbeat IPC: 0.744823 cumulative IPC: 0.741631 (Simulation time: 2 hr 30 min 47 sec) 
Heartbeat CPU 0 instructions: 95000000 cycles: 124197344 heartbeat IPC: 0.740525 cumulative IPC: 0.741618 (Simulation time: 2 hr 31 min 43 sec) 
Heartbeat CPU 0 instructions: 96000000 cycles: 125530501 heartbeat IPC: 0.750099 cumulative IPC: 0.741716 (Simulation time: 2 hr 32 min 43 sec) 
Heartbeat CPU 0 instructions: 97000000 cycles: 126840438 heartbeat IPC: 0.763395 cumulative IPC: 0.741958 (Simulation time: 2 hr 33 min 34 sec) 
Heartbeat CPU 0 instructions: 98000003 cycles: 128148841 heartbeat IPC: 0.764293 cumulative IPC: 0.742204 (Simulation time: 2 hr 34 min 25 sec) 
Heartbeat CPU 0 instructions: 99000000 cycles: 129536115 heartbeat IPC: 0.720836 cumulative IPC: 0.741957 (Simulation time: 2 hr 35 min 15 sec) 
Heartbeat CPU 0 instructions: 100000000 cycles: 130877775 heartbeat IPC: 0.745345 cumulative IPC: 0.741995 (Simulation time: 2 hr 36 min 3 sec) 
Heartbeat CPU 0 instructions: 101000000 cycles: 132226255 heartbeat IPC: 0.741576 cumulative IPC: 0.74199 (Simulation time: 2 hr 36 min 51 sec) 
Heartbeat CPU 0 instructions: 102000001 cycles: 133538745 heartbeat IPC: 0.761911 cumulative IPC: 0.742201 (Simulation time: 2 hr 37 min 38 sec) 
Heartbeat CPU 0 instructions: 103000001 cycles: 134840422 heartbeat IPC: 0.76824 cumulative IPC: 0.742472 (Simulation time: 2 hr 38 min 22 sec) 
Heartbeat CPU 0 instructions: 104000000 cycles: 136143681 heartbeat IPC: 0.767306 cumulative IPC: 0.742727 (Simulation time: 2 hr 39 min 8 sec) 
Heartbeat CPU 0 instructions: 105000002 cycles: 137521208 heartbeat IPC: 0.72594 cumulative IPC: 0.742547 (Simulation time: 2 hr 39 min 51 sec) 
Heartbeat CPU 0 instructions: 106000000 cycles: 138925686 heartbeat IPC: 0.712007 cumulative IPC: 0.742215 (Simulation time: 2 hr 40 min 34 sec) 
Heartbeat CPU 0 instructions: 107000002 cycles: 140314742 heartbeat IPC: 0.719915 cumulative IPC: 0.741978 (Simulation time: 2 hr 41 min 16 sec) 
Heartbeat CPU 0 instructions: 108000000 cycles: 141671240 heartbeat IPC: 0.737191 cumulative IPC: 0.741929 (Simulation time: 2 hr 41 min 58 sec) 
Heartbeat CPU 0 instructions: 109000000 cycles: 143006968 heartbeat IPC: 0.748655 cumulative IPC: 0.741996 (Simulation time: 2 hr 42 min 36 sec) 
Heartbeat CPU 0 instructions: 110000000 cycles: 144335579 heartbeat IPC: 0.752666 cumulative IPC: 0.742101 (Simulation time: 2 hr 43 min 16 sec) 
Finished CPU 0 instructions: 100000003 cycles: 134752483 cummulative IPC: 0.742101 (Simulation time: 2 hr 43 min 16 sec) 

ChampSim completed all CPUs

Region of Interest Statistics

CPU 0 cummulative IPC: 0.742101 instructions: 100000003 cycles: 134752483
LLC TOTAL     ACCESS:   21346126  HIT:   21272221  MISS:      73905
LLC LOAD      ACCESS:     165897  HIT:     131112  MISS:      34785
LLC RFO       ACCESS:   10463422  HIT:   10457724  MISS:       5698
LLC PREFETCH  ACCESS:     183319  HIT:     150079  MISS:      33240
LLC WRITEBACK ACCESS:   10533488  HIT:   10533306  MISS:        182
Insertion Distribution: 
	LOAD 6182 0 0 0 0 0 0 0 0 0 0 0 0 0 14988 17276 
	RFO 0 0 0 0 0 0 0 0 0 0 0 0 0 0 10485 3460 
	PREF 0 3604 0 0 0 0 0 0 0 0 0 0 0 0 14366 18312 
	WRITEBACK 0 0 0 0 0 0 0 0 0 0 0 0 0 0 0 184 
Total Prefetch Downgrades: 5304
