
*** ChampSim Multicore Out-of-Order Simulator ***

Warmup Instructions: 10000000
Simulation Instructions: 100000000
Configuration: 2
Number of CPUs: 1
LLC sets: 2048
LLC ways: 16
Off-chip DRAM Channels: 1 Width: 64-bit Data Rate: 1600 MT/s

CPU 0 runs /datasets/cs240c-wi22-a00-public/data/Assignment2-gz/leslie3d_1186B.trace.gz
CPU 0 L1D next line prefetcher
CPU 0 L2C IP-based stride prefetcher
Initialize SRRIP state
Heartbeat CPU 0 instructions: 1000002 cycles: 564509 heartbeat IPC: 1.77145 cumulative IPC: 1.77145 (Simulation time: 0 hr 1 min 49 sec) 
Heartbeat CPU 0 instructions: 2000000 cycles: 1215814 heartbeat IPC: 1.53538 cumulative IPC: 1.64499 (Simulation time: 0 hr 3 min 54 sec) 
Heartbeat CPU 0 instructions: 3000000 cycles: 1867530 heartbeat IPC: 1.53441 cumulative IPC: 1.6064 (Simulation time: 0 hr 6 min 7 sec) 
Heartbeat CPU 0 instructions: 4000000 cycles: 2473057 heartbeat IPC: 1.65145 cumulative IPC: 1.61743 (Simulation time: 0 hr 8 min 14 sec) 
Heartbeat CPU 0 instructions: 5000000 cycles: 3083369 heartbeat IPC: 1.63851 cumulative IPC: 1.6216 (Simulation time: 0 hr 10 min 21 sec) 
Heartbeat CPU 0 instructions: 6000000 cycles: 3735079 heartbeat IPC: 1.53442 cumulative IPC: 1.60639 (Simulation time: 0 hr 12 min 27 sec) 
Heartbeat CPU 0 instructions: 7000001 cycles: 4386324 heartbeat IPC: 1.53552 cumulative IPC: 1.59587 (Simulation time: 0 hr 14 min 35 sec) 
Heartbeat CPU 0 instructions: 8000000 cycles: 4950915 heartbeat IPC: 1.77119 cumulative IPC: 1.61586 (Simulation time: 0 hr 16 min 44 sec) 
Heartbeat CPU 0 instructions: 9000003 cycles: 5602208 heartbeat IPC: 1.53541 cumulative IPC: 1.60651 (Simulation time: 0 hr 18 min 54 sec) 
Heartbeat CPU 0 instructions: 10000001 cycles: 6253371 heartbeat IPC: 1.53571 cumulative IPC: 1.59914 (Simulation time: 0 hr 20 min 56 sec) 

Warmup complete CPU 0 instructions: 10000001 cycles: 6253371 (Simulation time: 0 hr 20 min 56 sec) 

Heartbeat CPU 0 instructions: 11000001 cycles: 7718814 heartbeat IPC: 0.682388 cumulative IPC: 0.682388 (Simulation time: 0 hr 23 min 5 sec) 
Heartbeat CPU 0 instructions: 12000000 cycles: 8961265 heartbeat IPC: 0.80486 cumulative IPC: 0.738581 (Simulation time: 0 hr 25 min 24 sec) 
Heartbeat CPU 0 instructions: 13000000 cycles: 10153563 heartbeat IPC: 0.838717 cumulative IPC: 0.769193 (Simulation time: 0 hr 27 min 26 sec) 
Heartbeat CPU 0 instructions: 14000000 cycles: 11383014 heartbeat IPC: 0.813371 cumulative IPC: 0.779781 (Simulation time: 0 hr 29 min 37 sec) 
Heartbeat CPU 0 instructions: 15000002 cycles: 12816234 heartbeat IPC: 0.697731 cumulative IPC: 0.761863 (Simulation time: 0 hr 31 min 42 sec) 
Heartbeat CPU 0 instructions: 16000000 cycles: 14005216 heartbeat IPC: 0.841054 cumulative IPC: 0.774009 (Simulation time: 0 hr 33 min 55 sec) 
Heartbeat CPU 0 instructions: 17000000 cycles: 15191099 heartbeat IPC: 0.843253 cumulative IPC: 0.783197 (Simulation time: 0 hr 35 min 59 sec) 
Heartbeat CPU 0 instructions: 18000001 cycles: 16632830 heartbeat IPC: 0.693611 cumulative IPC: 0.770753 (Simulation time: 0 hr 38 min 6 sec) 
Heartbeat CPU 0 instructions: 19000003 cycles: 17862132 heartbeat IPC: 0.813471 cumulative IPC: 0.775277 (Simulation time: 0 hr 40 min 28 sec) 
Heartbeat CPU 0 instructions: 20000000 cycles: 19070065 heartbeat IPC: 0.827858 cumulative IPC: 0.780232 (Simulation time: 0 hr 42 min 35 sec) 
Heartbeat CPU 0 instructions: 21000003 cycles: 20369990 heartbeat IPC: 0.769277 cumulative IPC: 0.779224 (Simulation time: 0 hr 44 min 44 sec) 
Heartbeat CPU 0 instructions: 22000003 cycles: 21700593 heartbeat IPC: 0.751539 cumulative IPC: 0.776839 (Simulation time: 0 hr 46 min 50 sec) 
Heartbeat CPU 0 instructions: 23000002 cycles: 22887671 heartbeat IPC: 0.842404 cumulative IPC: 0.781518 (Simulation time: 0 hr 48 min 56 sec) 
Heartbeat CPU 0 instructions: 24000000 cycles: 24069826 heartbeat IPC: 0.845911 cumulative IPC: 0.78579 (Simulation time: 0 hr 51 min 7 sec) 
Heartbeat CPU 0 instructions: 25000000 cycles: 25505825 heartbeat IPC: 0.696379 cumulative IPC: 0.779121 (Simulation time: 0 hr 53 min 14 sec) 
Heartbeat CPU 0 instructions: 26000000 cycles: 26707525 heartbeat IPC: 0.832154 cumulative IPC: 0.782237 (Simulation time: 0 hr 55 min 31 sec) 
Heartbeat CPU 0 instructions: 27000000 cycles: 27901963 heartbeat IPC: 0.837214 cumulative IPC: 0.78527 (Simulation time: 0 hr 57 min 40 sec) 
Heartbeat CPU 0 instructions: 28000000 cycles: 29305345 heartbeat IPC: 0.712564 cumulative IPC: 0.780844 (Simulation time: 0 hr 59 min 42 sec) 
Heartbeat CPU 0 instructions: 29000002 cycles: 30522534 heartbeat IPC: 0.821567 cumulative IPC: 0.782887 (Simulation time: 1 hr 1 min 59 sec) 
Heartbeat CPU 0 instructions: 30000002 cycles: 31719674 heartbeat IPC: 0.835324 cumulative IPC: 0.785352 (Simulation time: 1 hr 4 min 8 sec) 
Heartbeat CPU 0 instructions: 31000002 cycles: 32939895 heartbeat IPC: 0.819524 cumulative IPC: 0.786914 (Simulation time: 1 hr 6 min 18 sec) 
Heartbeat CPU 0 instructions: 32000000 cycles: 34330015 heartbeat IPC: 0.719361 cumulative IPC: 0.783569 (Simulation time: 1 hr 8 min 22 sec) 
Heartbeat CPU 0 instructions: 33000000 cycles: 35505838 heartbeat IPC: 0.850468 cumulative IPC: 0.786258 (Simulation time: 1 hr 10 min 46 sec) 
Heartbeat CPU 0 instructions: 34000000 cycles: 36682435 heartbeat IPC: 0.849909 cumulative IPC: 0.78872 (Simulation time: 1 hr 12 min 56 sec) 
Heartbeat CPU 0 instructions: 35000000 cycles: 38097399 heartbeat IPC: 0.706732 cumulative IPC: 0.785077 (Simulation time: 1 hr 15 min 1 sec) 
Heartbeat CPU 0 instructions: 36000000 cycles: 39296223 heartbeat IPC: 0.834151 cumulative IPC: 0.786857 (Simulation time: 1 hr 17 min 19 sec) 
Heartbeat CPU 0 instructions: 37000003 cycles: 40484359 heartbeat IPC: 0.841657 cumulative IPC: 0.788759 (Simulation time: 1 hr 19 min 31 sec) 
Heartbeat CPU 0 instructions: 38000003 cycles: 41798181 heartbeat IPC: 0.761138 cumulative IPC: 0.787738 (Simulation time: 1 hr 21 min 39 sec) 
Heartbeat CPU 0 instructions: 39000001 cycles: 43073363 heartbeat IPC: 0.7842 cumulative IPC: 0.787616 (Simulation time: 1 hr 23 min 45 sec) 
Heartbeat CPU 0 instructions: 40000000 cycles: 44254842 heartbeat IPC: 0.846396 cumulative IPC: 0.789443 (Simulation time: 1 hr 25 min 58 sec) 
Heartbeat CPU 0 instructions: 41000000 cycles: 45420258 heartbeat IPC: 0.858063 cumulative IPC: 0.791485 (Simulation time: 1 hr 28 min 2 sec) 
Heartbeat CPU 0 instructions: 42000000 cycles: 46827481 heartbeat IPC: 0.710619 cumulative IPC: 0.78868 (Simulation time: 1 hr 29 min 59 sec) 
Heartbeat CPU 0 instructions: 43000002 cycles: 47982866 heartbeat IPC: 0.865514 cumulative IPC: 0.790808 (Simulation time: 1 hr 32 min 9 sec) 
Heartbeat CPU 0 instructions: 44000000 cycles: 49154044 heartbeat IPC: 0.853839 cumulative IPC: 0.792528 (Simulation time: 1 hr 34 min 22 sec) 
Heartbeat CPU 0 instructions: 45000001 cycles: 50620745 heartbeat IPC: 0.681803 cumulative IPC: 0.788868 (Simulation time: 1 hr 36 min 20 sec) 
Heartbeat CPU 0 instructions: 46000001 cycles: 52546062 heartbeat IPC: 0.519395 cumulative IPC: 0.777661 (Simulation time: 1 hr 38 min 42 sec) 
Heartbeat CPU 0 instructions: 47000002 cycles: 54448354 heartbeat IPC: 0.525682 cumulative IPC: 0.767715 (Simulation time: 1 hr 41 min 4 sec) 
Heartbeat CPU 0 instructions: 48000000 cycles: 56394059 heartbeat IPC: 0.513951 cumulative IPC: 0.757868 (Simulation time: 1 hr 43 min 25 sec) 
Heartbeat CPU 0 instructions: 49000002 cycles: 58350120 heartbeat IPC: 0.511232 cumulative IPC: 0.748607 (Simulation time: 1 hr 45 min 45 sec) 
Heartbeat CPU 0 instructions: 50000002 cycles: 60295941 heartbeat IPC: 0.513922 cumulative IPC: 0.740157 (Simulation time: 1 hr 48 min 3 sec) 
Heartbeat CPU 0 instructions: 51000000 cycles: 62264422 heartbeat IPC: 0.508005 cumulative IPC: 0.731998 (Simulation time: 1 hr 50 min 23 sec) 
Heartbeat CPU 0 instructions: 52000000 cycles: 64198758 heartbeat IPC: 0.516973 cumulative IPC: 0.72482 (Simulation time: 1 hr 52 min 41 sec) 
Heartbeat CPU 0 instructions: 53000000 cycles: 66167103 heartbeat IPC: 0.508041 cumulative IPC: 0.717699 (Simulation time: 1 hr 55 min 12 sec) 
Heartbeat CPU 0 instructions: 54000003 cycles: 68078379 heartbeat IPC: 0.523212 cumulative IPC: 0.711686 (Simulation time: 1 hr 57 min 33 sec) 
Heartbeat CPU 0 instructions: 55000001 cycles: 70150921 heartbeat IPC: 0.482498 cumulative IPC: 0.704252 (Simulation time: 1 hr 59 min 47 sec) 
Heartbeat CPU 0 instructions: 56000000 cycles: 72509491 heartbeat IPC: 0.423985 cumulative IPC: 0.694275 (Simulation time: 2 hr 2 min 8 sec) 
Heartbeat CPU 0 instructions: 57000003 cycles: 74859357 heartbeat IPC: 0.425557 cumulative IPC: 0.685071 (Simulation time: 2 hr 4 min 30 sec) 
Heartbeat CPU 0 instructions: 58000001 cycles: 77230249 heartbeat IPC: 0.421781 cumulative IPC: 0.676277 (Simulation time: 2 hr 6 min 48 sec) 
Heartbeat CPU 0 instructions: 59000003 cycles: 79528248 heartbeat IPC: 0.435162 cumulative IPC: 0.668715 (Simulation time: 2 hr 9 min 22 sec) 
Heartbeat CPU 0 instructions: 60000000 cycles: 81867254 heartbeat IPC: 0.427531 cumulative IPC: 0.661254 (Simulation time: 2 hr 11 min 59 sec) 
Heartbeat CPU 0 instructions: 61000003 cycles: 84192989 heartbeat IPC: 0.429973 cumulative IPC: 0.654353 (Simulation time: 2 hr 14 min 26 sec) 
Heartbeat CPU 0 instructions: 62000001 cycles: 86509618 heartbeat IPC: 0.431661 cumulative IPC: 0.647925 (Simulation time: 2 hr 17 min 2 sec) 
Heartbeat CPU 0 instructions: 63000000 cycles: 88484087 heartbeat IPC: 0.506465 cumulative IPC: 0.644528 (Simulation time: 2 hr 19 min 19 sec) 
Heartbeat CPU 0 instructions: 64000000 cycles: 89757515 heartbeat IPC: 0.785282 cumulative IPC: 0.646674 (Simulation time: 2 hr 21 min 9 sec) 
Heartbeat CPU 0 instructions: 65000000 cycles: 91059762 heartbeat IPC: 0.767904 cumulative IPC: 0.648536 (Simulation time: 2 hr 23 min 3 sec) 
Heartbeat CPU 0 instructions: 66000002 cycles: 92352351 heartbeat IPC: 0.773643 cumulative IPC: 0.650414 (Simulation time: 2 hr 25 min 3 sec) 
Heartbeat CPU 0 instructions: 67000001 cycles: 93634547 heartbeat IPC: 0.779911 cumulative IPC: 0.652314 (Simulation time: 2 hr 26 min 47 sec) 
Heartbeat CPU 0 instructions: 68000000 cycles: 94976847 heartbeat IPC: 0.744989 cumulative IPC: 0.653717 (Simulation time: 2 hr 28 min 18 sec) 
Heartbeat CPU 0 instructions: 69000000 cycles: 96244112 heartbeat IPC: 0.789101 cumulative IPC: 0.655623 (Simulation time: 2 hr 29 min 53 sec) 
Heartbeat CPU 0 instructions: 70000000 cycles: 97553265 heartbeat IPC: 0.763853 cumulative IPC: 0.657175 (Simulation time: 2 hr 31 min 8 sec) 
Heartbeat CPU 0 instructions: 71000000 cycles: 98829283 heartbeat IPC: 0.783688 cumulative IPC: 0.658919 (Simulation time: 2 hr 32 min 27 sec) 
Heartbeat CPU 0 instructions: 72000000 cycles: 100123802 heartbeat IPC: 0.772488 cumulative IPC: 0.660485 (Simulation time: 2 hr 33 min 44 sec) 
Heartbeat CPU 0 instructions: 73000000 cycles: 101426761 heartbeat IPC: 0.767484 cumulative IPC: 0.66195 (Simulation time: 2 hr 34 min 58 sec) 
Heartbeat CPU 0 instructions: 74000000 cycles: 102699680 heartbeat IPC: 0.785596 cumulative IPC: 0.663582 (Simulation time: 2 hr 36 min 7 sec) 
Heartbeat CPU 0 instructions: 75000003 cycles: 104019197 heartbeat IPC: 0.757855 cumulative IPC: 0.664854 (Simulation time: 2 hr 37 min 15 sec) 
Heartbeat CPU 0 instructions: 76000000 cycles: 105300871 heartbeat IPC: 0.780227 cumulative IPC: 0.666347 (Simulation time: 2 hr 38 min 24 sec) 
Heartbeat CPU 0 instructions: 77000000 cycles: 106619293 heartbeat IPC: 0.758483 cumulative IPC: 0.667557 (Simulation time: 2 hr 39 min 35 sec) 
Heartbeat CPU 0 instructions: 78000001 cycles: 107917472 heartbeat IPC: 0.770311 cumulative IPC: 0.668869 (Simulation time: 2 hr 40 min 39 sec) 
Heartbeat CPU 0 instructions: 79000002 cycles: 109236320 heartbeat IPC: 0.758238 cumulative IPC: 0.670014 (Simulation time: 2 hr 41 min 45 sec) 
Heartbeat CPU 0 instructions: 80000000 cycles: 110569265 heartbeat IPC: 0.750217 cumulative IPC: 0.671039 (Simulation time: 2 hr 42 min 48 sec) 
Heartbeat CPU 0 instructions: 81000000 cycles: 111863351 heartbeat IPC: 0.772746 cumulative IPC: 0.672285 (Simulation time: 2 hr 43 min 53 sec) 
Heartbeat CPU 0 instructions: 82000003 cycles: 113193215 heartbeat IPC: 0.751959 cumulative IPC: 0.673276 (Simulation time: 2 hr 44 min 51 sec) 
Heartbeat CPU 0 instructions: 83000001 cycles: 114497868 heartbeat IPC: 0.766486 cumulative IPC: 0.674399 (Simulation time: 2 hr 45 min 38 sec) 
Heartbeat CPU 0 instructions: 84000000 cycles: 115806506 heartbeat IPC: 0.764153 cumulative IPC: 0.675471 (Simulation time: 2 hr 46 min 23 sec) 
Heartbeat CPU 0 instructions: 85000001 cycles: 117099943 heartbeat IPC: 0.773135 cumulative IPC: 0.676611 (Simulation time: 2 hr 47 min 7 sec) 
Heartbeat CPU 0 instructions: 86000003 cycles: 118404915 heartbeat IPC: 0.766302 cumulative IPC: 0.677655 (Simulation time: 2 hr 47 min 52 sec) 
Heartbeat CPU 0 instructions: 87000001 cycles: 119709120 heartbeat IPC: 0.766749 cumulative IPC: 0.678679 (Simulation time: 2 hr 48 min 27 sec) 
Heartbeat CPU 0 instructions: 88000000 cycles: 121019768 heartbeat IPC: 0.762981 cumulative IPC: 0.679641 (Simulation time: 2 hr 49 min 10 sec) 
Heartbeat CPU 0 instructions: 89000001 cycles: 122332181 heartbeat IPC: 0.761956 cumulative IPC: 0.680572 (Simulation time: 2 hr 49 min 48 sec) 
Heartbeat CPU 0 instructions: 90000002 cycles: 123632715 heartbeat IPC: 0.768916 cumulative IPC: 0.681551 (Simulation time: 2 hr 50 min 23 sec) 
Heartbeat CPU 0 instructions: 91000000 cycles: 124944175 heartbeat IPC: 0.762507 cumulative IPC: 0.682445 (Simulation time: 2 hr 50 min 50 sec) 
Heartbeat CPU 0 instructions: 92000000 cycles: 126231381 heartbeat IPC: 0.776876 cumulative IPC: 0.683459 (Simulation time: 2 hr 51 min 16 sec) 
Heartbeat CPU 0 instructions: 93000002 cycles: 127554514 heartbeat IPC: 0.755783 cumulative IPC: 0.684247 (Simulation time: 2 hr 51 min 39 sec) 
Heartbeat CPU 0 instructions: 94000000 cycles: 128835391 heartbeat IPC: 0.780713 cumulative IPC: 0.685255 (Simulation time: 2 hr 51 min 58 sec) 
Heartbeat CPU 0 instructions: 95000003 cycles: 130123988 heartbeat IPC: 0.77604 cumulative IPC: 0.6862 (Simulation time: 2 hr 52 min 15 sec) 
Heartbeat CPU 0 instructions: 96000000 cycles: 131438602 heartbeat IPC: 0.760677 cumulative IPC: 0.686982 (Simulation time: 2 hr 52 min 31 sec) 
Heartbeat CPU 0 instructions: 97000001 cycles: 132711999 heartbeat IPC: 0.785302 cumulative IPC: 0.687972 (Simulation time: 2 hr 52 min 45 sec) 
Heartbeat CPU 0 instructions: 98000002 cycles: 134031737 heartbeat IPC: 0.757727 cumulative IPC: 0.688693 (Simulation time: 2 hr 52 min 57 sec) 
Heartbeat CPU 0 instructions: 99000000 cycles: 135325267 heartbeat IPC: 0.773077 cumulative IPC: 0.689538 (Simulation time: 2 hr 53 min 7 sec) 
Heartbeat CPU 0 instructions: 100000000 cycles: 136664552 heartbeat IPC: 0.746667 cumulative IPC: 0.690125 (Simulation time: 2 hr 53 min 17 sec) 
Heartbeat CPU 0 instructions: 101000000 cycles: 137959991 heartbeat IPC: 0.771939 cumulative IPC: 0.69093 (Simulation time: 2 hr 53 min 27 sec) 
Heartbeat CPU 0 instructions: 102000001 cycles: 139247205 heartbeat IPC: 0.776872 cumulative IPC: 0.691761 (Simulation time: 2 hr 53 min 37 sec) 
Heartbeat CPU 0 instructions: 103000002 cycles: 140570717 heartbeat IPC: 0.755566 cumulative IPC: 0.69239 (Simulation time: 2 hr 53 min 47 sec) 
Heartbeat CPU 0 instructions: 104000000 cycles: 141850882 heartbeat IPC: 0.781148 cumulative IPC: 0.693228 (Simulation time: 2 hr 53 min 57 sec) 
Heartbeat CPU 0 instructions: 105000001 cycles: 143180568 heartbeat IPC: 0.752058 cumulative IPC: 0.693799 (Simulation time: 2 hr 54 min 7 sec) 
Heartbeat CPU 0 instructions: 106000002 cycles: 144477766 heartbeat IPC: 0.770893 cumulative IPC: 0.694523 (Simulation time: 2 hr 54 min 16 sec) 
Heartbeat CPU 0 instructions: 107000000 cycles: 145798096 heartbeat IPC: 0.757385 cumulative IPC: 0.695118 (Simulation time: 2 hr 54 min 25 sec) 
Heartbeat CPU 0 instructions: 108000000 cycles: 147094026 heartbeat IPC: 0.771647 cumulative IPC: 0.695822 (Simulation time: 2 hr 54 min 34 sec) 
Heartbeat CPU 0 instructions: 109000003 cycles: 148393123 heartbeat IPC: 0.769768 cumulative IPC: 0.696498 (Simulation time: 2 hr 54 min 43 sec) 
Heartbeat CPU 0 instructions: 110000001 cycles: 149726403 heartbeat IPC: 0.750028 cumulative IPC: 0.696995 (Simulation time: 2 hr 54 min 51 sec) 
Finished CPU 0 instructions: 100000000 cycles: 143473032 cummulative IPC: 0.696995 (Simulation time: 2 hr 54 min 51 sec) 

ChampSim completed all CPUs

Region of Interest Statistics

CPU 0 cummulative IPC: 0.696995 instructions: 100000000 cycles: 143473032
LLC TOTAL     ACCESS:    3758121  HIT:     997264  MISS:    2760857
LLC LOAD      ACCESS:     402701  HIT:      98521  MISS:     304180
LLC RFO       ACCESS:     463743  HIT:     173355  MISS:     290388
LLC PREFETCH  ACCESS:    2142468  HIT:     425547  MISS:    1716921
LLC WRITEBACK ACCESS:     749209  HIT:     299841  MISS:     449368
Insertion Distribution: 
	LOAD 54546 0 0 0 0 0 0 0 0 0 0 0 0 0 33603 219597 
	RFO 908 0 0 0 0 0 0 0 0 0 0 0 0 0 7586 284019 
	PREF 0 41440 0 0 0 0 0 0 0 0 0 0 0 0 143038 1708753 
	WRITEBACK 0 0 0 0 0 0 0 0 0 0 0 0 0 0 0 472899 
Total Prefetch Downgrades: 45860
