
*** ChampSim Multicore Out-of-Order Simulator ***

Warmup Instructions: 10000000
Simulation Instructions: 100000000
Configuration: 2
Number of CPUs: 1
LLC sets: 2048
LLC ways: 16
Off-chip DRAM Channels: 1 Width: 64-bit Data Rate: 1600 MT/s

CPU 0 runs /datasets/cs240c-wi22-a00-public/data/Assignment2-gz/perlbench_135B.trace.gz
CPU 0 L1D next line prefetcher
CPU 0 L2C IP-based stride prefetcher
Initialize SRRIP state
Heartbeat CPU 0 instructions: 1000000 cycles: 600033 heartbeat IPC: 1.66657 cumulative IPC: 1.66657 (Simulation time: 0 hr 1 min 40 sec) 
Heartbeat CPU 0 instructions: 2000000 cycles: 1209304 heartbeat IPC: 1.64131 cumulative IPC: 1.65384 (Simulation time: 0 hr 3 min 25 sec) 
Heartbeat CPU 0 instructions: 3000000 cycles: 1832837 heartbeat IPC: 1.60376 cumulative IPC: 1.63681 (Simulation time: 0 hr 5 min 6 sec) 
Heartbeat CPU 0 instructions: 4000000 cycles: 2492645 heartbeat IPC: 1.51559 cumulative IPC: 1.60472 (Simulation time: 0 hr 6 min 51 sec) 
Heartbeat CPU 0 instructions: 5000001 cycles: 3079308 heartbeat IPC: 1.70456 cumulative IPC: 1.62374 (Simulation time: 0 hr 8 min 24 sec) 
Heartbeat CPU 0 instructions: 6000002 cycles: 3681733 heartbeat IPC: 1.65996 cumulative IPC: 1.62967 (Simulation time: 0 hr 10 min 4 sec) 
Heartbeat CPU 0 instructions: 7000001 cycles: 4282494 heartbeat IPC: 1.66455 cumulative IPC: 1.63456 (Simulation time: 0 hr 11 min 47 sec) 
Heartbeat CPU 0 instructions: 8000000 cycles: 4892986 heartbeat IPC: 1.63802 cumulative IPC: 1.63499 (Simulation time: 0 hr 13 min 31 sec) 
Heartbeat CPU 0 instructions: 9000001 cycles: 5534102 heartbeat IPC: 1.55978 cumulative IPC: 1.62628 (Simulation time: 0 hr 15 min 11 sec) 
Heartbeat CPU 0 instructions: 10000000 cycles: 6192789 heartbeat IPC: 1.51817 cumulative IPC: 1.61478 (Simulation time: 0 hr 16 min 59 sec) 

Warmup complete CPU 0 instructions: 10000004 cycles: 6192790 (Simulation time: 0 hr 16 min 59 sec) 

Heartbeat CPU 0 instructions: 11000003 cycles: 8935519 heartbeat IPC: 0.364601 cumulative IPC: 0.3646 (Simulation time: 0 hr 19 min 17 sec) 
Heartbeat CPU 0 instructions: 12000000 cycles: 11273182 heartbeat IPC: 0.427776 cumulative IPC: 0.39367 (Simulation time: 0 hr 21 min 18 sec) 
Heartbeat CPU 0 instructions: 13000000 cycles: 13824644 heartbeat IPC: 0.391932 cumulative IPC: 0.393089 (Simulation time: 0 hr 23 min 21 sec) 
Heartbeat CPU 0 instructions: 14000000 cycles: 16827883 heartbeat IPC: 0.332974 cumulative IPC: 0.376113 (Simulation time: 0 hr 25 min 19 sec) 
Heartbeat CPU 0 instructions: 15000003 cycles: 19505210 heartbeat IPC: 0.373508 cumulative IPC: 0.375589 (Simulation time: 0 hr 27 min 9 sec) 
Heartbeat CPU 0 instructions: 16000000 cycles: 22141160 heartbeat IPC: 0.379369 cumulative IPC: 0.376214 (Simulation time: 0 hr 29 min 2 sec) 
Heartbeat CPU 0 instructions: 17000000 cycles: 24845008 heartbeat IPC: 0.369843 cumulative IPC: 0.37529 (Simulation time: 0 hr 30 min 53 sec) 
Heartbeat CPU 0 instructions: 18000000 cycles: 27527114 heartbeat IPC: 0.372841 cumulative IPC: 0.374982 (Simulation time: 0 hr 32 min 50 sec) 
Heartbeat CPU 0 instructions: 19000003 cycles: 30160444 heartbeat IPC: 0.379748 cumulative IPC: 0.375506 (Simulation time: 0 hr 34 min 42 sec) 
Heartbeat CPU 0 instructions: 20000000 cycles: 32800693 heartbeat IPC: 0.378751 cumulative IPC: 0.375828 (Simulation time: 0 hr 36 min 33 sec) 
Heartbeat CPU 0 instructions: 21000000 cycles: 35427122 heartbeat IPC: 0.380745 cumulative IPC: 0.37627 (Simulation time: 0 hr 38 min 23 sec) 
Heartbeat CPU 0 instructions: 22000002 cycles: 38055083 heartbeat IPC: 0.380524 cumulative IPC: 0.376621 (Simulation time: 0 hr 40 min 19 sec) 
Heartbeat CPU 0 instructions: 23000003 cycles: 40711976 heartbeat IPC: 0.37638 cumulative IPC: 0.376602 (Simulation time: 0 hr 42 min 32 sec) 
Heartbeat CPU 0 instructions: 24000000 cycles: 42808937 heartbeat IPC: 0.476879 cumulative IPC: 0.382345 (Simulation time: 0 hr 44 min 18 sec) 
Heartbeat CPU 0 instructions: 25000000 cycles: 45415591 heartbeat IPC: 0.383634 cumulative IPC: 0.382431 (Simulation time: 0 hr 46 min 28 sec) 
Heartbeat CPU 0 instructions: 26000001 cycles: 47968698 heartbeat IPC: 0.39168 cumulative IPC: 0.382996 (Simulation time: 0 hr 48 min 22 sec) 
Heartbeat CPU 0 instructions: 27000000 cycles: 50634201 heartbeat IPC: 0.375163 cumulative IPC: 0.382526 (Simulation time: 0 hr 50 min 21 sec) 
Heartbeat CPU 0 instructions: 28000000 cycles: 53275414 heartbeat IPC: 0.378614 cumulative IPC: 0.382307 (Simulation time: 0 hr 52 min 18 sec) 
Heartbeat CPU 0 instructions: 29000000 cycles: 55903227 heartbeat IPC: 0.380545 cumulative IPC: 0.382213 (Simulation time: 0 hr 54 min 22 sec) 
Heartbeat CPU 0 instructions: 30000000 cycles: 58619025 heartbeat IPC: 0.368216 cumulative IPC: 0.381488 (Simulation time: 0 hr 56 min 20 sec) 
Heartbeat CPU 0 instructions: 31000001 cycles: 61256816 heartbeat IPC: 0.379105 cumulative IPC: 0.381374 (Simulation time: 0 hr 58 min 17 sec) 
Heartbeat CPU 0 instructions: 32000000 cycles: 63908389 heartbeat IPC: 0.377134 cumulative IPC: 0.381179 (Simulation time: 1 hr 0 min 12 sec) 
Heartbeat CPU 0 instructions: 33000000 cycles: 66536427 heartbeat IPC: 0.380512 cumulative IPC: 0.38115 (Simulation time: 1 hr 2 min 7 sec) 
Heartbeat CPU 0 instructions: 34000001 cycles: 69146567 heartbeat IPC: 0.383122 cumulative IPC: 0.381232 (Simulation time: 1 hr 4 min 4 sec) 
Heartbeat CPU 0 instructions: 35000003 cycles: 71797650 heartbeat IPC: 0.377205 cumulative IPC: 0.381069 (Simulation time: 1 hr 6 min 12 sec) 
Heartbeat CPU 0 instructions: 36000000 cycles: 74102476 heartbeat IPC: 0.433871 cumulative IPC: 0.382861 (Simulation time: 1 hr 8 min 10 sec) 
Heartbeat CPU 0 instructions: 37000000 cycles: 76390939 heartbeat IPC: 0.436975 cumulative IPC: 0.384625 (Simulation time: 1 hr 10 min 18 sec) 
Heartbeat CPU 0 instructions: 38000000 cycles: 78478227 heartbeat IPC: 0.479091 cumulative IPC: 0.387353 (Simulation time: 1 hr 12 min 13 sec) 
Heartbeat CPU 0 instructions: 39000000 cycles: 80773025 heartbeat IPC: 0.435768 cumulative IPC: 0.388843 (Simulation time: 1 hr 14 min 16 sec) 
Heartbeat CPU 0 instructions: 40000000 cycles: 82726408 heartbeat IPC: 0.511932 cumulative IPC: 0.391985 (Simulation time: 1 hr 15 min 56 sec) 
Heartbeat CPU 0 instructions: 41000001 cycles: 84806267 heartbeat IPC: 0.480802 cumulative IPC: 0.394334 (Simulation time: 1 hr 17 min 43 sec) 
Heartbeat CPU 0 instructions: 42000003 cycles: 87423425 heartbeat IPC: 0.382095 cumulative IPC: 0.39394 (Simulation time: 1 hr 19 min 44 sec) 
Heartbeat CPU 0 instructions: 43000001 cycles: 89986017 heartbeat IPC: 0.390229 cumulative IPC: 0.393827 (Simulation time: 1 hr 21 min 54 sec) 
Heartbeat CPU 0 instructions: 44000000 cycles: 92280242 heartbeat IPC: 0.435877 cumulative IPC: 0.394947 (Simulation time: 1 hr 23 min 58 sec) 
Heartbeat CPU 0 instructions: 45000003 cycles: 94912426 heartbeat IPC: 0.379914 cumulative IPC: 0.394501 (Simulation time: 1 hr 26 min 5 sec) 
Heartbeat CPU 0 instructions: 46000003 cycles: 97584373 heartbeat IPC: 0.374259 cumulative IPC: 0.393909 (Simulation time: 1 hr 27 min 54 sec) 
Heartbeat CPU 0 instructions: 47000000 cycles: 100212246 heartbeat IPC: 0.380535 cumulative IPC: 0.393536 (Simulation time: 1 hr 29 min 45 sec) 
Heartbeat CPU 0 instructions: 48000000 cycles: 102825697 heartbeat IPC: 0.382636 cumulative IPC: 0.393241 (Simulation time: 1 hr 31 min 38 sec) 
Heartbeat CPU 0 instructions: 49000000 cycles: 105496190 heartbeat IPC: 0.374463 cumulative IPC: 0.392736 (Simulation time: 1 hr 33 min 32 sec) 
Heartbeat CPU 0 instructions: 50000001 cycles: 108122431 heartbeat IPC: 0.380773 cumulative IPC: 0.392428 (Simulation time: 1 hr 35 min 26 sec) 
Heartbeat CPU 0 instructions: 51000000 cycles: 110741057 heartbeat IPC: 0.381879 cumulative IPC: 0.392163 (Simulation time: 1 hr 37 min 17 sec) 
Heartbeat CPU 0 instructions: 52000000 cycles: 113351860 heartbeat IPC: 0.383024 cumulative IPC: 0.391941 (Simulation time: 1 hr 39 min 12 sec) 
Heartbeat CPU 0 instructions: 53000000 cycles: 115936378 heartbeat IPC: 0.386919 cumulative IPC: 0.391822 (Simulation time: 1 hr 41 min 10 sec) 
Heartbeat CPU 0 instructions: 54000001 cycles: 118576522 heartbeat IPC: 0.378768 cumulative IPC: 0.391516 (Simulation time: 1 hr 43 min 10 sec) 
Heartbeat CPU 0 instructions: 55000001 cycles: 121023873 heartbeat IPC: 0.408605 cumulative IPC: 0.39188 (Simulation time: 1 hr 45 min 17 sec) 
Heartbeat CPU 0 instructions: 56000000 cycles: 123149093 heartbeat IPC: 0.470539 cumulative IPC: 0.393309 (Simulation time: 1 hr 47 min 12 sec) 
Heartbeat CPU 0 instructions: 57000000 cycles: 125350843 heartbeat IPC: 0.454184 cumulative IPC: 0.394434 (Simulation time: 1 hr 49 min 4 sec) 
Heartbeat CPU 0 instructions: 58000002 cycles: 127298632 heartbeat IPC: 0.513404 cumulative IPC: 0.396347 (Simulation time: 1 hr 50 min 51 sec) 
Heartbeat CPU 0 instructions: 59000003 cycles: 129417258 heartbeat IPC: 0.472005 cumulative IPC: 0.397648 (Simulation time: 1 hr 52 min 35 sec) 
Heartbeat CPU 0 instructions: 60000000 cycles: 132336243 heartbeat IPC: 0.342584 cumulative IPC: 0.396374 (Simulation time: 1 hr 54 min 32 sec) 
Heartbeat CPU 0 instructions: 61000000 cycles: 134747487 heartbeat IPC: 0.414724 cumulative IPC: 0.396718 (Simulation time: 1 hr 56 min 34 sec) 
Heartbeat CPU 0 instructions: 62000001 cycles: 137525485 heartbeat IPC: 0.359972 cumulative IPC: 0.395941 (Simulation time: 1 hr 58 min 28 sec) 
Heartbeat CPU 0 instructions: 63000000 cycles: 140454216 heartbeat IPC: 0.341444 cumulative IPC: 0.394752 (Simulation time: 2 hr 0 min 24 sec) 
Heartbeat CPU 0 instructions: 64000000 cycles: 143363618 heartbeat IPC: 0.343713 cumulative IPC: 0.39367 (Simulation time: 2 hr 2 min 16 sec) 
Heartbeat CPU 0 instructions: 65000001 cycles: 146247578 heartbeat IPC: 0.346746 cumulative IPC: 0.392703 (Simulation time: 2 hr 4 min 14 sec) 
Heartbeat CPU 0 instructions: 66000001 cycles: 149103264 heartbeat IPC: 0.350179 cumulative IPC: 0.391854 (Simulation time: 2 hr 6 min 11 sec) 
Heartbeat CPU 0 instructions: 67000001 cycles: 151825704 heartbeat IPC: 0.367318 cumulative IPC: 0.391395 (Simulation time: 2 hr 8 min 17 sec) 
Heartbeat CPU 0 instructions: 68000000 cycles: 154554319 heartbeat IPC: 0.366486 cumulative IPC: 0.390937 (Simulation time: 2 hr 10 min 31 sec) 
Heartbeat CPU 0 instructions: 69000002 cycles: 157500627 heartbeat IPC: 0.339409 cumulative IPC: 0.389934 (Simulation time: 2 hr 12 min 28 sec) 
Heartbeat CPU 0 instructions: 70000003 cycles: 159307043 heartbeat IPC: 0.553583 cumulative IPC: 0.391864 (Simulation time: 2 hr 14 min 5 sec) 
Heartbeat CPU 0 instructions: 71000000 cycles: 161226788 heartbeat IPC: 0.520901 cumulative IPC: 0.393462 (Simulation time: 2 hr 15 min 36 sec) 
Heartbeat CPU 0 instructions: 72000000 cycles: 163215071 heartbeat IPC: 0.502946 cumulative IPC: 0.394848 (Simulation time: 2 hr 17 min 6 sec) 
Heartbeat CPU 0 instructions: 73000000 cycles: 165484537 heartbeat IPC: 0.440632 cumulative IPC: 0.395501 (Simulation time: 2 hr 18 min 51 sec) 
Heartbeat CPU 0 instructions: 74000000 cycles: 167403083 heartbeat IPC: 0.521228 cumulative IPC: 0.396997 (Simulation time: 2 hr 20 min 26 sec) 
Heartbeat CPU 0 instructions: 75000003 cycles: 169635760 heartbeat IPC: 0.447894 cumulative IPC: 0.397692 (Simulation time: 2 hr 22 min 3 sec) 
Heartbeat CPU 0 instructions: 76000000 cycles: 172375642 heartbeat IPC: 0.364978 cumulative IPC: 0.397153 (Simulation time: 2 hr 23 min 49 sec) 
Heartbeat CPU 0 instructions: 77000000 cycles: 175068464 heartbeat IPC: 0.371358 cumulative IPC: 0.396742 (Simulation time: 2 hr 25 min 25 sec) 
Heartbeat CPU 0 instructions: 78000000 cycles: 178026381 heartbeat IPC: 0.338076 cumulative IPC: 0.395732 (Simulation time: 2 hr 26 min 56 sec) 
Heartbeat CPU 0 instructions: 79000000 cycles: 179885039 heartbeat IPC: 0.538023 cumulative IPC: 0.397254 (Simulation time: 2 hr 28 min 7 sec) 
Heartbeat CPU 0 instructions: 80000000 cycles: 181671890 heartbeat IPC: 0.559644 cumulative IPC: 0.398908 (Simulation time: 2 hr 29 min 13 sec) 
Heartbeat CPU 0 instructions: 81000000 cycles: 183593286 heartbeat IPC: 0.520455 cumulative IPC: 0.400224 (Simulation time: 2 hr 30 min 21 sec) 
Heartbeat CPU 0 instructions: 82000000 cycles: 185510825 heartbeat IPC: 0.521502 cumulative IPC: 0.401521 (Simulation time: 2 hr 31 min 27 sec) 
Heartbeat CPU 0 instructions: 83000000 cycles: 187842565 heartbeat IPC: 0.428864 cumulative IPC: 0.401872 (Simulation time: 2 hr 32 min 37 sec) 
Heartbeat CPU 0 instructions: 84000000 cycles: 189795821 heartbeat IPC: 0.511966 cumulative IPC: 0.403043 (Simulation time: 2 hr 33 min 47 sec) 
Heartbeat CPU 0 instructions: 85000000 cycles: 191716945 heartbeat IPC: 0.520529 cumulative IPC: 0.40426 (Simulation time: 2 hr 34 min 45 sec) 
Heartbeat CPU 0 instructions: 86000002 cycles: 193635474 heartbeat IPC: 0.521234 cumulative IPC: 0.405457 (Simulation time: 2 hr 35 min 41 sec) 
Heartbeat CPU 0 instructions: 87000003 cycles: 195802729 heartbeat IPC: 0.461414 cumulative IPC: 0.406097 (Simulation time: 2 hr 36 min 32 sec) 
Heartbeat CPU 0 instructions: 88000000 cycles: 198575702 heartbeat IPC: 0.360623 cumulative IPC: 0.405441 (Simulation time: 2 hr 37 min 31 sec) 
Heartbeat CPU 0 instructions: 89000003 cycles: 201141792 heartbeat IPC: 0.389699 cumulative IPC: 0.405234 (Simulation time: 2 hr 38 min 25 sec) 
Heartbeat CPU 0 instructions: 90000001 cycles: 204027497 heartbeat IPC: 0.346535 cumulative IPC: 0.404378 (Simulation time: 2 hr 39 min 23 sec) 
Heartbeat CPU 0 instructions: 91000000 cycles: 206514722 heartbeat IPC: 0.402054 cumulative IPC: 0.404349 (Simulation time: 2 hr 40 min 11 sec) 
Heartbeat CPU 0 instructions: 92000000 cycles: 208973811 heartbeat IPC: 0.406655 cumulative IPC: 0.404377 (Simulation time: 2 hr 41 min 0 sec) 
Heartbeat CPU 0 instructions: 93000000 cycles: 211674099 heartbeat IPC: 0.370331 cumulative IPC: 0.40393 (Simulation time: 2 hr 41 min 50 sec) 
Heartbeat CPU 0 instructions: 94000001 cycles: 214335660 heartbeat IPC: 0.37572 cumulative IPC: 0.403569 (Simulation time: 2 hr 42 min 36 sec) 
Heartbeat CPU 0 instructions: 95000000 cycles: 217184970 heartbeat IPC: 0.350962 cumulative IPC: 0.402859 (Simulation time: 2 hr 43 min 24 sec) 
Heartbeat CPU 0 instructions: 96000000 cycles: 220219610 heartbeat IPC: 0.329528 cumulative IPC: 0.401819 (Simulation time: 2 hr 44 min 12 sec) 
Heartbeat CPU 0 instructions: 97000001 cycles: 223121944 heartbeat IPC: 0.344551 cumulative IPC: 0.401053 (Simulation time: 2 hr 44 min 58 sec) 
Heartbeat CPU 0 instructions: 98000000 cycles: 225774465 heartbeat IPC: 0.376999 cumulative IPC: 0.400762 (Simulation time: 2 hr 45 min 35 sec) 
Heartbeat CPU 0 instructions: 99000000 cycles: 228372401 heartbeat IPC: 0.384921 cumulative IPC: 0.400577 (Simulation time: 2 hr 46 min 11 sec) 
Heartbeat CPU 0 instructions: 100000000 cycles: 230993927 heartbeat IPC: 0.381457 cumulative IPC: 0.400354 (Simulation time: 2 hr 46 min 47 sec) 
Heartbeat CPU 0 instructions: 101000001 cycles: 233594504 heartbeat IPC: 0.38453 cumulative IPC: 0.400173 (Simulation time: 2 hr 47 min 20 sec) 
Heartbeat CPU 0 instructions: 102000000 cycles: 236219445 heartbeat IPC: 0.380961 cumulative IPC: 0.399954 (Simulation time: 2 hr 47 min 52 sec) 
Heartbeat CPU 0 instructions: 103000000 cycles: 238866875 heartbeat IPC: 0.377725 cumulative IPC: 0.399701 (Simulation time: 2 hr 48 min 26 sec) 
Heartbeat CPU 0 instructions: 104000000 cycles: 241596168 heartbeat IPC: 0.366395 cumulative IPC: 0.399315 (Simulation time: 2 hr 48 min 57 sec) 
Heartbeat CPU 0 instructions: 105000001 cycles: 244200429 heartbeat IPC: 0.383986 cumulative IPC: 0.399147 (Simulation time: 2 hr 49 min 26 sec) 
Heartbeat CPU 0 instructions: 106000001 cycles: 246818404 heartbeat IPC: 0.381975 cumulative IPC: 0.39896 (Simulation time: 2 hr 49 min 55 sec) 
Heartbeat CPU 0 instructions: 107000000 cycles: 249433325 heartbeat IPC: 0.38242 cumulative IPC: 0.398782 (Simulation time: 2 hr 50 min 22 sec) 
Heartbeat CPU 0 instructions: 108000000 cycles: 252044245 heartbeat IPC: 0.383007 cumulative IPC: 0.398615 (Simulation time: 2 hr 50 min 44 sec) 
Heartbeat CPU 0 instructions: 109000001 cycles: 254619811 heartbeat IPC: 0.388265 cumulative IPC: 0.398507 (Simulation time: 2 hr 51 min 6 sec) 
Heartbeat CPU 0 instructions: 110000003 cycles: 256774258 heartbeat IPC: 0.464157 cumulative IPC: 0.399072 (Simulation time: 2 hr 51 min 23 sec) 
Finished CPU 0 instructions: 100000003 cycles: 250581469 cummulative IPC: 0.399072 (Simulation time: 2 hr 51 min 23 sec) 

ChampSim completed all CPUs

Region of Interest Statistics

CPU 0 cummulative IPC: 0.399072 instructions: 100000003 cycles: 250581469
LLC TOTAL     ACCESS:     635529  HIT:     573746  MISS:      61783
LLC LOAD      ACCESS:     295059  HIT:     285861  MISS:       9198
LLC RFO       ACCESS:      30364  HIT:      25968  MISS:       4396
LLC PREFETCH  ACCESS:     206825  HIT:     160140  MISS:      46685
LLC WRITEBACK ACCESS:     103281  HIT:     101777  MISS:       1504
Insertion Distribution: 
	LOAD 4356 0 0 0 0 0 0 0 0 0 0 0 0 0 18328 685 
	RFO 246 0 0 0 0 0 0 0 0 0 0 0 0 0 5397 517 
	PREF 0 407 0 0 0 0 0 0 0 0 0 0 0 0 28586 30572 
	WRITEBACK 0 0 0 0 0 0 0 0 0 0 0 0 0 0 0 1813 
Total Prefetch Downgrades: 3350
