
*** ChampSim Multicore Out-of-Order Simulator ***

Warmup Instructions: 10000000
Simulation Instructions: 100000000
Configuration: 2
Number of CPUs: 1
LLC sets: 2048
LLC ways: 16
Off-chip DRAM Channels: 1 Width: 64-bit Data Rate: 1600 MT/s

CPU 0 runs /datasets/cs240c-wi22-a00-public/data/Assignment2-gz/cactusADM_1039B.trace.gz
CPU 0 L1D next line prefetcher
CPU 0 L2C IP-based stride prefetcher
Initialize SRRIP state
Heartbeat CPU 0 instructions: 1000000 cycles: 595518 heartbeat IPC: 1.67921 cumulative IPC: 1.67921 (Simulation time: 0 hr 1 min 48 sec) 
Heartbeat CPU 0 instructions: 2000002 cycles: 1190937 heartbeat IPC: 1.67949 cumulative IPC: 1.67935 (Simulation time: 0 hr 3 min 36 sec) 
Heartbeat CPU 0 instructions: 3000003 cycles: 1786622 heartbeat IPC: 1.67874 cumulative IPC: 1.67915 (Simulation time: 0 hr 5 min 22 sec) 
Heartbeat CPU 0 instructions: 4000000 cycles: 2382046 heartbeat IPC: 1.67947 cumulative IPC: 1.67923 (Simulation time: 0 hr 7 min 10 sec) 
Heartbeat CPU 0 instructions: 5000001 cycles: 2977457 heartbeat IPC: 1.67951 cumulative IPC: 1.67929 (Simulation time: 0 hr 8 min 55 sec) 
Heartbeat CPU 0 instructions: 6000002 cycles: 3572930 heartbeat IPC: 1.67934 cumulative IPC: 1.67929 (Simulation time: 0 hr 10 min 37 sec) 
Heartbeat CPU 0 instructions: 7000000 cycles: 4168306 heartbeat IPC: 1.67961 cumulative IPC: 1.67934 (Simulation time: 0 hr 12 min 19 sec) 
Heartbeat CPU 0 instructions: 8000000 cycles: 4763681 heartbeat IPC: 1.67961 cumulative IPC: 1.67937 (Simulation time: 0 hr 13 min 58 sec) 
Heartbeat CPU 0 instructions: 9000002 cycles: 5359336 heartbeat IPC: 1.67883 cumulative IPC: 1.67931 (Simulation time: 0 hr 15 min 43 sec) 
Heartbeat CPU 0 instructions: 10000003 cycles: 5974113 heartbeat IPC: 1.62661 cumulative IPC: 1.67389 (Simulation time: 0 hr 17 min 29 sec) 

Warmup complete CPU 0 instructions: 10000003 cycles: 5974113 (Simulation time: 0 hr 17 min 29 sec) 

Heartbeat CPU 0 instructions: 11000003 cycles: 12128139 heartbeat IPC: 0.162495 cumulative IPC: 0.162495 (Simulation time: 0 hr 19 min 41 sec) 
Heartbeat CPU 0 instructions: 12000000 cycles: 13871151 heartbeat IPC: 0.573718 cumulative IPC: 0.253259 (Simulation time: 0 hr 21 min 28 sec) 
Heartbeat CPU 0 instructions: 13000002 cycles: 15538685 heartbeat IPC: 0.599689 cumulative IPC: 0.313657 (Simulation time: 0 hr 23 min 14 sec) 
Heartbeat CPU 0 instructions: 14000001 cycles: 17246509 heartbeat IPC: 0.58554 cumulative IPC: 0.354849 (Simulation time: 0 hr 25 min 1 sec) 
Heartbeat CPU 0 instructions: 15000002 cycles: 18989814 heartbeat IPC: 0.573624 cumulative IPC: 0.384151 (Simulation time: 0 hr 26 min 44 sec) 
Heartbeat CPU 0 instructions: 16000000 cycles: 20736593 heartbeat IPC: 0.572481 cumulative IPC: 0.406436 (Simulation time: 0 hr 28 min 29 sec) 
Heartbeat CPU 0 instructions: 17000003 cycles: 22460437 heartbeat IPC: 0.580101 cumulative IPC: 0.424594 (Simulation time: 0 hr 30 min 18 sec) 
Heartbeat CPU 0 instructions: 18000002 cycles: 24115414 heartbeat IPC: 0.604237 cumulative IPC: 0.440983 (Simulation time: 0 hr 32 min 8 sec) 
Heartbeat CPU 0 instructions: 19000003 cycles: 25852751 heartbeat IPC: 0.575594 cumulative IPC: 0.452747 (Simulation time: 0 hr 33 min 57 sec) 
Heartbeat CPU 0 instructions: 20000000 cycles: 27596483 heartbeat IPC: 0.573481 cumulative IPC: 0.462484 (Simulation time: 0 hr 35 min 40 sec) 
Heartbeat CPU 0 instructions: 21000002 cycles: 29340249 heartbeat IPC: 0.573473 cumulative IPC: 0.470767 (Simulation time: 0 hr 37 min 27 sec) 
Heartbeat CPU 0 instructions: 22000003 cycles: 31030902 heartbeat IPC: 0.591488 cumulative IPC: 0.478912 (Simulation time: 0 hr 39 min 14 sec) 
Heartbeat CPU 0 instructions: 23000001 cycles: 32715911 heartbeat IPC: 0.593467 cumulative IPC: 0.48613 (Simulation time: 0 hr 41 min 11 sec) 
Heartbeat CPU 0 instructions: 24000000 cycles: 39377009 heartbeat IPC: 0.150125 cumulative IPC: 0.419125 (Simulation time: 0 hr 43 min 25 sec) 
Heartbeat CPU 0 instructions: 25000002 cycles: 41114347 heartbeat IPC: 0.575594 cumulative IPC: 0.426861 (Simulation time: 0 hr 45 min 17 sec) 
Heartbeat CPU 0 instructions: 26000002 cycles: 42839291 heartbeat IPC: 0.579729 cumulative IPC: 0.434014 (Simulation time: 0 hr 47 min 8 sec) 
Heartbeat CPU 0 instructions: 27000002 cycles: 44504249 heartbeat IPC: 0.600616 cumulative IPC: 0.441213 (Simulation time: 0 hr 48 min 54 sec) 
Heartbeat CPU 0 instructions: 28000000 cycles: 46234580 heartbeat IPC: 0.577923 cumulative IPC: 0.447089 (Simulation time: 0 hr 50 min 42 sec) 
Heartbeat CPU 0 instructions: 29000000 cycles: 47975566 heartbeat IPC: 0.574387 cumulative IPC: 0.452365 (Simulation time: 0 hr 52 min 32 sec) 
Heartbeat CPU 0 instructions: 30000003 cycles: 49714141 heartbeat IPC: 0.575185 cumulative IPC: 0.457247 (Simulation time: 0 hr 54 min 23 sec) 
Heartbeat CPU 0 instructions: 31000001 cycles: 51409836 heartbeat IPC: 0.589728 cumulative IPC: 0.462191 (Simulation time: 0 hr 56 min 8 sec) 
Heartbeat CPU 0 instructions: 32000000 cycles: 53084797 heartbeat IPC: 0.597028 cumulative IPC: 0.466985 (Simulation time: 0 hr 57 min 56 sec) 
Heartbeat CPU 0 instructions: 33000001 cycles: 54822374 heartbeat IPC: 0.575515 cumulative IPC: 0.470846 (Simulation time: 0 hr 59 min 45 sec) 
Heartbeat CPU 0 instructions: 34000000 cycles: 56561786 heartbeat IPC: 0.574906 cumulative IPC: 0.474424 (Simulation time: 1 hr 1 min 40 sec) 
Heartbeat CPU 0 instructions: 35000001 cycles: 58296942 heartbeat IPC: 0.576318 cumulative IPC: 0.477803 (Simulation time: 1 hr 3 min 24 sec) 
Heartbeat CPU 0 instructions: 36000000 cycles: 59960090 heartbeat IPC: 0.601269 cumulative IPC: 0.481606 (Simulation time: 1 hr 5 min 12 sec) 
Heartbeat CPU 0 instructions: 37000002 cycles: 66548396 heartbeat IPC: 0.151784 cumulative IPC: 0.445734 (Simulation time: 1 hr 7 min 17 sec) 
Heartbeat CPU 0 instructions: 38000001 cycles: 68286801 heartbeat IPC: 0.575239 cumulative IPC: 0.449347 (Simulation time: 1 hr 9 min 4 sec) 
Heartbeat CPU 0 instructions: 39000002 cycles: 70026787 heartbeat IPC: 0.574718 cumulative IPC: 0.452752 (Simulation time: 1 hr 10 min 55 sec) 
Heartbeat CPU 0 instructions: 40000000 cycles: 71723240 heartbeat IPC: 0.589464 cumulative IPC: 0.45628 (Simulation time: 1 hr 12 min 50 sec) 
Heartbeat CPU 0 instructions: 41000003 cycles: 73392494 heartbeat IPC: 0.599072 cumulative IPC: 0.459815 (Simulation time: 1 hr 14 min 37 sec) 
Heartbeat CPU 0 instructions: 42000000 cycles: 75128938 heartbeat IPC: 0.575888 cumulative IPC: 0.46273 (Simulation time: 1 hr 16 min 24 sec) 
Heartbeat CPU 0 instructions: 43000000 cycles: 76868998 heartbeat IPC: 0.574693 cumulative IPC: 0.465478 (Simulation time: 1 hr 18 min 11 sec) 
Heartbeat CPU 0 instructions: 44000000 cycles: 78606384 heartbeat IPC: 0.575577 cumulative IPC: 0.468111 (Simulation time: 1 hr 20 min 2 sec) 
Heartbeat CPU 0 instructions: 45000000 cycles: 80273588 heartbeat IPC: 0.599807 cumulative IPC: 0.471067 (Simulation time: 1 hr 21 min 47 sec) 
Heartbeat CPU 0 instructions: 46000003 cycles: 81977325 heartbeat IPC: 0.586947 cumulative IPC: 0.473664 (Simulation time: 1 hr 23 min 33 sec) 
Heartbeat CPU 0 instructions: 47000001 cycles: 83717053 heartbeat IPC: 0.574801 cumulative IPC: 0.475927 (Simulation time: 1 hr 25 min 28 sec) 
Heartbeat CPU 0 instructions: 48000000 cycles: 85456401 heartbeat IPC: 0.574928 cumulative IPC: 0.478094 (Simulation time: 1 hr 27 min 12 sec) 
Heartbeat CPU 0 instructions: 49000001 cycles: 87179427 heartbeat IPC: 0.580375 cumulative IPC: 0.480264 (Simulation time: 1 hr 28 min 54 sec) 
Heartbeat CPU 0 instructions: 50000000 cycles: 93823673 heartbeat IPC: 0.150506 cumulative IPC: 0.455324 (Simulation time: 1 hr 31 min 4 sec) 
Heartbeat CPU 0 instructions: 51000003 cycles: 95586823 heartbeat IPC: 0.567168 cumulative IPC: 0.457524 (Simulation time: 1 hr 32 min 52 sec) 
Heartbeat CPU 0 instructions: 52000000 cycles: 97357550 heartbeat IPC: 0.564738 cumulative IPC: 0.459602 (Simulation time: 1 hr 34 min 41 sec) 
Heartbeat CPU 0 instructions: 53000003 cycles: 99126603 heartbeat IPC: 0.565276 cumulative IPC: 0.461609 (Simulation time: 1 hr 36 min 24 sec) 
Heartbeat CPU 0 instructions: 54000002 cycles: 100841665 heartbeat IPC: 0.583069 cumulative IPC: 0.463805 (Simulation time: 1 hr 38 min 11 sec) 
Heartbeat CPU 0 instructions: 55000001 cycles: 102566868 heartbeat IPC: 0.579641 cumulative IPC: 0.465873 (Simulation time: 1 hr 40 min 3 sec) 
Heartbeat CPU 0 instructions: 56000000 cycles: 104334955 heartbeat IPC: 0.565582 cumulative IPC: 0.467666 (Simulation time: 1 hr 41 min 51 sec) 
Heartbeat CPU 0 instructions: 57000000 cycles: 106107748 heartbeat IPC: 0.564082 cumulative IPC: 0.469373 (Simulation time: 1 hr 43 min 35 sec) 
Heartbeat CPU 0 instructions: 58000000 cycles: 107872179 heartbeat IPC: 0.566755 cumulative IPC: 0.471059 (Simulation time: 1 hr 45 min 22 sec) 
Heartbeat CPU 0 instructions: 59000002 cycles: 109557974 heartbeat IPC: 0.593193 cumulative IPC: 0.473047 (Simulation time: 1 hr 47 min 11 sec) 
Heartbeat CPU 0 instructions: 60000000 cycles: 111316058 heartbeat IPC: 0.5688 cumulative IPC: 0.474645 (Simulation time: 1 hr 49 min 1 sec) 
Heartbeat CPU 0 instructions: 61000001 cycles: 113090297 heartbeat IPC: 0.563622 cumulative IPC: 0.476119 (Simulation time: 1 hr 50 min 55 sec) 
Heartbeat CPU 0 instructions: 62000000 cycles: 114861003 heartbeat IPC: 0.564746 cumulative IPC: 0.47756 (Simulation time: 1 hr 52 min 37 sec) 
Heartbeat CPU 0 instructions: 63000001 cycles: 121075948 heartbeat IPC: 0.160903 cumulative IPC: 0.460462 (Simulation time: 1 hr 54 min 47 sec) 
Heartbeat CPU 0 instructions: 64000000 cycles: 123345434 heartbeat IPC: 0.440628 cumulative IPC: 0.460078 (Simulation time: 1 hr 56 min 40 sec) 
Heartbeat CPU 0 instructions: 65000002 cycles: 125115541 heartbeat IPC: 0.564939 cumulative IPC: 0.461636 (Simulation time: 1 hr 58 min 32 sec) 
Heartbeat CPU 0 instructions: 66000001 cycles: 126886081 heartbeat IPC: 0.564799 cumulative IPC: 0.463147 (Simulation time: 2 hr 0 min 15 sec) 
Heartbeat CPU 0 instructions: 67000003 cycles: 128650240 heartbeat IPC: 0.566843 cumulative IPC: 0.464638 (Simulation time: 2 hr 2 min 3 sec) 
Heartbeat CPU 0 instructions: 68000000 cycles: 130375422 heartbeat IPC: 0.579647 cumulative IPC: 0.466233 (Simulation time: 2 hr 3 min 49 sec) 
Heartbeat CPU 0 instructions: 69000003 cycles: 132151399 heartbeat IPC: 0.563072 cumulative IPC: 0.467596 (Simulation time: 2 hr 5 min 44 sec) 
Heartbeat CPU 0 instructions: 70000002 cycles: 133921657 heartbeat IPC: 0.564889 cumulative IPC: 0.468942 (Simulation time: 2 hr 7 min 37 sec) 
Heartbeat CPU 0 instructions: 71000000 cycles: 135692468 heartbeat IPC: 0.564712 cumulative IPC: 0.47025 (Simulation time: 2 hr 9 min 38 sec) 
Heartbeat CPU 0 instructions: 72000000 cycles: 137438068 heartbeat IPC: 0.572869 cumulative IPC: 0.471612 (Simulation time: 2 hr 11 min 49 sec) 
Heartbeat CPU 0 instructions: 73000001 cycles: 139137081 heartbeat IPC: 0.588578 cumulative IPC: 0.473104 (Simulation time: 2 hr 13 min 56 sec) 
Heartbeat CPU 0 instructions: 74000003 cycles: 140904324 heartbeat IPC: 0.565854 cumulative IPC: 0.474319 (Simulation time: 2 hr 16 min 1 sec) 
Heartbeat CPU 0 instructions: 75000002 cycles: 142676657 heartbeat IPC: 0.564227 cumulative IPC: 0.475485 (Simulation time: 2 hr 18 min 3 sec) 
Heartbeat CPU 0 instructions: 76000000 cycles: 147947596 heartbeat IPC: 0.189719 cumulative IPC: 0.464876 (Simulation time: 2 hr 20 min 24 sec) 
Heartbeat CPU 0 instructions: 77000001 cycles: 151113351 heartbeat IPC: 0.315881 cumulative IPC: 0.461626 (Simulation time: 2 hr 22 min 33 sec) 
Heartbeat CPU 0 instructions: 78000000 cycles: 152861905 heartbeat IPC: 0.571901 cumulative IPC: 0.462938 (Simulation time: 2 hr 24 min 33 sec) 
Heartbeat CPU 0 instructions: 79000002 cycles: 154630753 heartbeat IPC: 0.565341 cumulative IPC: 0.464157 (Simulation time: 2 hr 26 min 28 sec) 
Heartbeat CPU 0 instructions: 80000000 cycles: 156400784 heartbeat IPC: 0.564961 cumulative IPC: 0.465343 (Simulation time: 2 hr 28 min 3 sec) 
Heartbeat CPU 0 instructions: 81000002 cycles: 158147282 heartbeat IPC: 0.572576 cumulative IPC: 0.466574 (Simulation time: 2 hr 29 min 29 sec) 
Heartbeat CPU 0 instructions: 82000002 cycles: 159840773 heartbeat IPC: 0.590496 cumulative IPC: 0.467938 (Simulation time: 2 hr 30 min 58 sec) 
Heartbeat CPU 0 instructions: 83000003 cycles: 161605803 heartbeat IPC: 0.566563 cumulative IPC: 0.469056 (Simulation time: 2 hr 32 min 22 sec) 
Heartbeat CPU 0 instructions: 84000000 cycles: 163374668 heartbeat IPC: 0.565333 cumulative IPC: 0.470138 (Simulation time: 2 hr 33 min 39 sec) 
Heartbeat CPU 0 instructions: 85000002 cycles: 165143990 heartbeat IPC: 0.565189 cumulative IPC: 0.471195 (Simulation time: 2 hr 34 min 57 sec) 
Heartbeat CPU 0 instructions: 86000003 cycles: 166858027 heartbeat IPC: 0.583419 cumulative IPC: 0.47239 (Simulation time: 2 hr 36 min 11 sec) 
Heartbeat CPU 0 instructions: 87000000 cycles: 168599218 heartbeat IPC: 0.574318 cumulative IPC: 0.473482 (Simulation time: 2 hr 37 min 24 sec) 
Heartbeat CPU 0 instructions: 88000000 cycles: 170367571 heartbeat IPC: 0.565498 cumulative IPC: 0.474471 (Simulation time: 2 hr 38 min 36 sec) 
Heartbeat CPU 0 instructions: 89000001 cycles: 174704240 heartbeat IPC: 0.230592 cumulative IPC: 0.468203 (Simulation time: 2 hr 39 min 49 sec) 
Heartbeat CPU 0 instructions: 90000002 cycles: 178835498 heartbeat IPC: 0.242057 cumulative IPC: 0.462799 (Simulation time: 2 hr 41 min 1 sec) 
Heartbeat CPU 0 instructions: 91000000 cycles: 180528634 heartbeat IPC: 0.590619 cumulative IPC: 0.464038 (Simulation time: 2 hr 41 min 59 sec) 
Heartbeat CPU 0 instructions: 92000000 cycles: 182291267 heartbeat IPC: 0.567333 cumulative IPC: 0.465071 (Simulation time: 2 hr 42 min 55 sec) 
Heartbeat CPU 0 instructions: 93000001 cycles: 184061965 heartbeat IPC: 0.56475 cumulative IPC: 0.466062 (Simulation time: 2 hr 43 min 54 sec) 
Heartbeat CPU 0 instructions: 94000003 cycles: 185835445 heartbeat IPC: 0.563864 cumulative IPC: 0.467026 (Simulation time: 2 hr 44 min 54 sec) 
Heartbeat CPU 0 instructions: 95000001 cycles: 187554374 heartbeat IPC: 0.581756 cumulative IPC: 0.468113 (Simulation time: 2 hr 45 min 45 sec) 
Heartbeat CPU 0 instructions: 96000000 cycles: 189274005 heartbeat IPC: 0.58152 cumulative IPC: 0.469176 (Simulation time: 2 hr 46 min 28 sec) 
Heartbeat CPU 0 instructions: 97000002 cycles: 191042247 heartbeat IPC: 0.565535 cumulative IPC: 0.470097 (Simulation time: 2 hr 47 min 10 sec) 
Heartbeat CPU 0 instructions: 98000000 cycles: 192813908 heartbeat IPC: 0.564441 cumulative IPC: 0.470992 (Simulation time: 2 hr 47 min 46 sec) 
Heartbeat CPU 0 instructions: 99000002 cycles: 194580722 heartbeat IPC: 0.565992 cumulative IPC: 0.471882 (Simulation time: 2 hr 48 min 26 sec) 
Heartbeat CPU 0 instructions: 100000000 cycles: 196270281 heartbeat IPC: 0.591869 cumulative IPC: 0.472947 (Simulation time: 2 hr 49 min 6 sec) 
Heartbeat CPU 0 instructions: 101000002 cycles: 198023807 heartbeat IPC: 0.570281 cumulative IPC: 0.473836 (Simulation time: 2 hr 49 min 45 sec) 
Heartbeat CPU 0 instructions: 102000000 cycles: 201372221 heartbeat IPC: 0.298648 cumulative IPC: 0.470834 (Simulation time: 2 hr 50 min 20 sec) 
Heartbeat CPU 0 instructions: 103000002 cycles: 206497574 heartbeat IPC: 0.195109 cumulative IPC: 0.463786 (Simulation time: 2 hr 50 min 50 sec) 
Heartbeat CPU 0 instructions: 104000000 cycles: 208222722 heartbeat IPC: 0.579659 cumulative IPC: 0.464775 (Simulation time: 2 hr 51 min 18 sec) 
Heartbeat CPU 0 instructions: 105000002 cycles: 209937148 heartbeat IPC: 0.583287 cumulative IPC: 0.465771 (Simulation time: 2 hr 51 min 39 sec) 
Heartbeat CPU 0 instructions: 106000001 cycles: 211709585 heartbeat IPC: 0.564194 cumulative IPC: 0.466619 (Simulation time: 2 hr 51 min 57 sec) 
Heartbeat CPU 0 instructions: 107000003 cycles: 213479432 heartbeat IPC: 0.565022 cumulative IPC: 0.467458 (Simulation time: 2 hr 52 min 14 sec) 
Heartbeat CPU 0 instructions: 108000000 cycles: 215247718 heartbeat IPC: 0.565518 cumulative IPC: 0.468286 (Simulation time: 2 hr 52 min 30 sec) 
Heartbeat CPU 0 instructions: 109000003 cycles: 216945145 heartbeat IPC: 0.589129 cumulative IPC: 0.469259 (Simulation time: 2 hr 52 min 45 sec) 
Heartbeat CPU 0 instructions: 110000002 cycles: 218693285 heartbeat IPC: 0.572036 cumulative IPC: 0.470103 (Simulation time: 2 hr 52 min 57 sec) 
Finished CPU 0 instructions: 100000003 cycles: 212719173 cummulative IPC: 0.470103 (Simulation time: 2 hr 52 min 57 sec) 

ChampSim completed all CPUs

Region of Interest Statistics

CPU 0 cummulative IPC: 0.470103 instructions: 100000003 cycles: 212719173
LLC TOTAL     ACCESS:    1168759  HIT:     340339  MISS:     828420
LLC LOAD      ACCESS:      25253  HIT:       3219  MISS:      22034
LLC RFO       ACCESS:     265309  HIT:      77104  MISS:     188205
LLC PREFETCH  ACCESS:     610855  HIT:     143098  MISS:     467757
LLC WRITEBACK ACCESS:     267342  HIT:     116918  MISS:     150424
Insertion Distribution: 
	LOAD 638 0 0 0 0 0 0 0 0 0 0 0 0 0 11904 10653 
	RFO 12036 0 0 0 0 0 0 0 0 0 0 0 0 0 21208 166233 
	PREF 0 46842 0 0 0 0 0 0 0 0 0 0 0 0 71279 398602 
	WRITEBACK 0 0 0 0 0 0 0 0 0 0 0 0 0 0 0 152437 
Total Prefetch Downgrades: 51001
