
*** ChampSim Multicore Out-of-Order Simulator ***

Warmup Instructions: 10000000
Simulation Instructions: 100000000
Configuration: 2
Number of CPUs: 1
LLC sets: 2048
LLC ways: 16
Off-chip DRAM Channels: 1 Width: 64-bit Data Rate: 1600 MT/s

CPU 0 runs /datasets/cs240c-wi22-a00-public/data/Assignment2-gz/bzip2_183B.trace.gz
CPU 0 L1D next line prefetcher
CPU 0 L2C IP-based stride prefetcher
Initialize SRRIP state
Heartbeat CPU 0 instructions: 1000000 cycles: 447972 heartbeat IPC: 2.23228 cumulative IPC: 2.23228 (Simulation time: 0 hr 1 min 26 sec) 
Heartbeat CPU 0 instructions: 2000001 cycles: 951246 heartbeat IPC: 1.98699 cumulative IPC: 2.10251 (Simulation time: 0 hr 2 min 59 sec) 
Heartbeat CPU 0 instructions: 3000001 cycles: 1457933 heartbeat IPC: 1.97361 cumulative IPC: 2.05771 (Simulation time: 0 hr 4 min 35 sec) 
Heartbeat CPU 0 instructions: 4000000 cycles: 1928626 heartbeat IPC: 2.12452 cumulative IPC: 2.07402 (Simulation time: 0 hr 6 min 1 sec) 
Heartbeat CPU 0 instructions: 5000000 cycles: 2425933 heartbeat IPC: 2.01083 cumulative IPC: 2.06106 (Simulation time: 0 hr 7 min 32 sec) 
Heartbeat CPU 0 instructions: 6000001 cycles: 2887533 heartbeat IPC: 2.16638 cumulative IPC: 2.0779 (Simulation time: 0 hr 9 min 0 sec) 
Heartbeat CPU 0 instructions: 7000002 cycles: 3343396 heartbeat IPC: 2.19364 cumulative IPC: 2.09368 (Simulation time: 0 hr 10 min 27 sec) 
Heartbeat CPU 0 instructions: 8000000 cycles: 3812995 heartbeat IPC: 2.12947 cumulative IPC: 2.09809 (Simulation time: 0 hr 11 min 52 sec) 
Heartbeat CPU 0 instructions: 9000003 cycles: 4278250 heartbeat IPC: 2.14937 cumulative IPC: 2.10366 (Simulation time: 0 hr 13 min 15 sec) 
Heartbeat CPU 0 instructions: 10000000 cycles: 4746655 heartbeat IPC: 2.1349 cumulative IPC: 2.10675 (Simulation time: 0 hr 14 min 43 sec) 

Warmup complete CPU 0 instructions: 10000001 cycles: 4746656 (Simulation time: 0 hr 14 min 43 sec) 

Heartbeat CPU 0 instructions: 11000000 cycles: 6253541 heartbeat IPC: 0.66362 cumulative IPC: 0.66362 (Simulation time: 0 hr 16 min 0 sec) 
Heartbeat CPU 0 instructions: 12000000 cycles: 7709562 heartbeat IPC: 0.686803 cumulative IPC: 0.675013 (Simulation time: 0 hr 17 min 18 sec) 
Heartbeat CPU 0 instructions: 13000000 cycles: 8934132 heartbeat IPC: 0.816613 cumulative IPC: 0.716422 (Simulation time: 0 hr 18 min 33 sec) 
Heartbeat CPU 0 instructions: 14000003 cycles: 9982853 heartbeat IPC: 0.953545 cumulative IPC: 0.763914 (Simulation time: 0 hr 19 min 52 sec) 
Heartbeat CPU 0 instructions: 15000000 cycles: 11373405 heartbeat IPC: 0.719137 cumulative IPC: 0.754518 (Simulation time: 0 hr 21 min 12 sec) 
Heartbeat CPU 0 instructions: 16000000 cycles: 12350267 heartbeat IPC: 1.02369 cumulative IPC: 0.789099 (Simulation time: 0 hr 22 min 27 sec) 
Heartbeat CPU 0 instructions: 17000003 cycles: 13249132 heartbeat IPC: 1.11252 cumulative IPC: 0.82329 (Simulation time: 0 hr 23 min 47 sec) 
Heartbeat CPU 0 instructions: 18000001 cycles: 14170548 heartbeat IPC: 1.08528 cumulative IPC: 0.848906 (Simulation time: 0 hr 25 min 11 sec) 
Heartbeat CPU 0 instructions: 19000002 cycles: 15116067 heartbeat IPC: 1.05762 cumulative IPC: 0.867938 (Simulation time: 0 hr 26 min 25 sec) 
Heartbeat CPU 0 instructions: 20000000 cycles: 16317315 heartbeat IPC: 0.832466 cumulative IPC: 0.864255 (Simulation time: 0 hr 27 min 42 sec) 
Heartbeat CPU 0 instructions: 21000000 cycles: 17814457 heartbeat IPC: 0.667939 cumulative IPC: 0.841764 (Simulation time: 0 hr 28 min 57 sec) 
Heartbeat CPU 0 instructions: 22000000 cycles: 19223723 heartbeat IPC: 0.709589 cumulative IPC: 0.828897 (Simulation time: 0 hr 30 min 7 sec) 
Heartbeat CPU 0 instructions: 23000000 cycles: 20358868 heartbeat IPC: 0.880945 cumulative IPC: 0.832681 (Simulation time: 0 hr 31 min 26 sec) 
Heartbeat CPU 0 instructions: 24000000 cycles: 21616903 heartbeat IPC: 0.79489 cumulative IPC: 0.829863 (Simulation time: 0 hr 32 min 42 sec) 
Heartbeat CPU 0 instructions: 25000001 cycles: 22960991 heartbeat IPC: 0.744 cumulative IPC: 0.823527 (Simulation time: 0 hr 33 min 57 sec) 
Heartbeat CPU 0 instructions: 26000002 cycles: 23940652 heartbeat IPC: 1.02076 cumulative IPC: 0.833594 (Simulation time: 0 hr 35 min 7 sec) 
Heartbeat CPU 0 instructions: 27000000 cycles: 24940921 heartbeat IPC: 0.999729 cumulative IPC: 0.841823 (Simulation time: 0 hr 36 min 19 sec) 
Heartbeat CPU 0 instructions: 28000000 cycles: 26221664 heartbeat IPC: 0.780797 cumulative IPC: 0.838184 (Simulation time: 0 hr 37 min 31 sec) 
Heartbeat CPU 0 instructions: 29000003 cycles: 27293864 heartbeat IPC: 0.932665 cumulative IPC: 0.842676 (Simulation time: 0 hr 38 min 40 sec) 
Heartbeat CPU 0 instructions: 30000000 cycles: 28610519 heartbeat IPC: 0.759498 cumulative IPC: 0.838087 (Simulation time: 0 hr 40 min 0 sec) 
Heartbeat CPU 0 instructions: 31000000 cycles: 29902283 heartbeat IPC: 0.774135 cumulative IPC: 0.834803 (Simulation time: 0 hr 41 min 14 sec) 
Heartbeat CPU 0 instructions: 32000000 cycles: 31518115 heartbeat IPC: 0.618876 cumulative IPC: 0.821771 (Simulation time: 0 hr 42 min 27 sec) 
Heartbeat CPU 0 instructions: 33000000 cycles: 32580503 heartbeat IPC: 0.941276 cumulative IPC: 0.826332 (Simulation time: 0 hr 43 min 47 sec) 
Heartbeat CPU 0 instructions: 34000001 cycles: 33587395 heartbeat IPC: 0.993156 cumulative IPC: 0.832156 (Simulation time: 0 hr 45 min 1 sec) 
Heartbeat CPU 0 instructions: 35000003 cycles: 34601216 heartbeat IPC: 0.986369 cumulative IPC: 0.837393 (Simulation time: 0 hr 46 min 16 sec) 
Heartbeat CPU 0 instructions: 36000000 cycles: 35610040 heartbeat IPC: 0.99125 cumulative IPC: 0.842422 (Simulation time: 0 hr 47 min 30 sec) 
Heartbeat CPU 0 instructions: 37000003 cycles: 36849058 heartbeat IPC: 0.807093 cumulative IPC: 0.841059 (Simulation time: 0 hr 48 min 42 sec) 
Heartbeat CPU 0 instructions: 38000001 cycles: 38364308 heartbeat IPC: 0.659956 cumulative IPC: 0.832896 (Simulation time: 0 hr 49 min 56 sec) 
Heartbeat CPU 0 instructions: 39000002 cycles: 39478580 heartbeat IPC: 0.897448 cumulative IPC: 0.834967 (Simulation time: 0 hr 51 min 9 sec) 
Heartbeat CPU 0 instructions: 40000000 cycles: 40516115 heartbeat IPC: 0.963821 cumulative IPC: 0.838704 (Simulation time: 0 hr 52 min 26 sec) 
Heartbeat CPU 0 instructions: 41000002 cycles: 41984282 heartbeat IPC: 0.681123 cumulative IPC: 0.832491 (Simulation time: 0 hr 53 min 42 sec) 
Heartbeat CPU 0 instructions: 42000000 cycles: 43266415 heartbeat IPC: 0.779949 cumulative IPC: 0.830742 (Simulation time: 0 hr 54 min 53 sec) 
Heartbeat CPU 0 instructions: 43000001 cycles: 44412965 heartbeat IPC: 0.872183 cumulative IPC: 0.83194 (Simulation time: 0 hr 56 min 9 sec) 
Heartbeat CPU 0 instructions: 44000000 cycles: 45561364 heartbeat IPC: 0.870777 cumulative IPC: 0.833033 (Simulation time: 0 hr 57 min 23 sec) 
Heartbeat CPU 0 instructions: 45000000 cycles: 46627117 heartbeat IPC: 0.938304 cumulative IPC: 0.835712 (Simulation time: 0 hr 58 min 38 sec) 
Heartbeat CPU 0 instructions: 46000000 cycles: 47741334 heartbeat IPC: 0.897491 cumulative IPC: 0.837313 (Simulation time: 0 hr 59 min 50 sec) 
Heartbeat CPU 0 instructions: 47000003 cycles: 48745684 heartbeat IPC: 0.995672 cumulative IPC: 0.840928 (Simulation time: 1 hr 1 min 11 sec) 
Heartbeat CPU 0 instructions: 48000000 cycles: 50316479 heartbeat IPC: 0.636618 cumulative IPC: 0.833885 (Simulation time: 1 hr 2 min 28 sec) 
Heartbeat CPU 0 instructions: 49000003 cycles: 51917932 heartbeat IPC: 0.624435 cumulative IPC: 0.826774 (Simulation time: 1 hr 3 min 40 sec) 
Heartbeat CPU 0 instructions: 50000000 cycles: 53046111 heartbeat IPC: 0.886382 cumulative IPC: 0.828167 (Simulation time: 1 hr 5 min 1 sec) 
Heartbeat CPU 0 instructions: 51000000 cycles: 54075903 heartbeat IPC: 0.97107 cumulative IPC: 0.83115 (Simulation time: 1 hr 6 min 17 sec) 
Heartbeat CPU 0 instructions: 52000000 cycles: 55093687 heartbeat IPC: 0.982527 cumulative IPC: 0.83421 (Simulation time: 1 hr 7 min 27 sec) 
Heartbeat CPU 0 instructions: 53000001 cycles: 56065021 heartbeat IPC: 1.02951 cumulative IPC: 0.837907 (Simulation time: 1 hr 8 min 46 sec) 
Heartbeat CPU 0 instructions: 54000001 cycles: 57073615 heartbeat IPC: 0.991479 cumulative IPC: 0.840867 (Simulation time: 1 hr 10 min 5 sec) 
Heartbeat CPU 0 instructions: 55000001 cycles: 58302193 heartbeat IPC: 0.813949 cumulative IPC: 0.840249 (Simulation time: 1 hr 11 min 25 sec) 
Heartbeat CPU 0 instructions: 56000000 cycles: 59487560 heartbeat IPC: 0.84362 cumulative IPC: 0.840322 (Simulation time: 1 hr 12 min 43 sec) 
Heartbeat CPU 0 instructions: 57000003 cycles: 60862340 heartbeat IPC: 0.727391 cumulative IPC: 0.837556 (Simulation time: 1 hr 13 min 59 sec) 
Heartbeat CPU 0 instructions: 58000001 cycles: 62437163 heartbeat IPC: 0.634991 cumulative IPC: 0.832026 (Simulation time: 1 hr 15 min 11 sec) 
Heartbeat CPU 0 instructions: 59000003 cycles: 63741506 heartbeat IPC: 0.766671 cumulative IPC: 0.830581 (Simulation time: 1 hr 16 min 27 sec) 
Heartbeat CPU 0 instructions: 60000000 cycles: 65317234 heartbeat IPC: 0.634625 cumulative IPC: 0.825483 (Simulation time: 1 hr 17 min 46 sec) 
Heartbeat CPU 0 instructions: 61000003 cycles: 67036925 heartbeat IPC: 0.581502 cumulative IPC: 0.818748 (Simulation time: 1 hr 18 min 59 sec) 
Heartbeat CPU 0 instructions: 62000002 cycles: 68580619 heartbeat IPC: 0.647796 cumulative IPC: 0.814613 (Simulation time: 1 hr 20 min 14 sec) 
Heartbeat CPU 0 instructions: 63000003 cycles: 69969722 heartbeat IPC: 0.71989 cumulative IPC: 0.812596 (Simulation time: 1 hr 21 min 32 sec) 
Heartbeat CPU 0 instructions: 64000000 cycles: 71538876 heartbeat IPC: 0.637284 cumulative IPC: 0.808477 (Simulation time: 1 hr 22 min 41 sec) 
Heartbeat CPU 0 instructions: 65000003 cycles: 72799461 heartbeat IPC: 0.793285 cumulative IPC: 0.808196 (Simulation time: 1 hr 23 min 54 sec) 
Heartbeat CPU 0 instructions: 66000000 cycles: 74124500 heartbeat IPC: 0.754692 cumulative IPC: 0.807174 (Simulation time: 1 hr 25 min 16 sec) 
Heartbeat CPU 0 instructions: 67000000 cycles: 75062938 heartbeat IPC: 1.0656 cumulative IPC: 0.810623 (Simulation time: 1 hr 26 min 30 sec) 
Heartbeat CPU 0 instructions: 68000000 cycles: 76464323 heartbeat IPC: 0.71358 cumulative IPC: 0.808727 (Simulation time: 1 hr 27 min 41 sec) 
Heartbeat CPU 0 instructions: 69000000 cycles: 78035020 heartbeat IPC: 0.63666 cumulative IPC: 0.805039 (Simulation time: 1 hr 28 min 54 sec) 
Heartbeat CPU 0 instructions: 70000002 cycles: 79504274 heartbeat IPC: 0.680619 cumulative IPC: 0.802594 (Simulation time: 1 hr 30 min 10 sec) 
Heartbeat CPU 0 instructions: 71000000 cycles: 81068414 heartbeat IPC: 0.639328 cumulative IPC: 0.799248 (Simulation time: 1 hr 31 min 24 sec) 
Heartbeat CPU 0 instructions: 72000000 cycles: 82436675 heartbeat IPC: 0.730855 cumulative IPC: 0.798043 (Simulation time: 1 hr 32 min 37 sec) 
Heartbeat CPU 0 instructions: 73000001 cycles: 83724099 heartbeat IPC: 0.776746 cumulative IPC: 0.797696 (Simulation time: 1 hr 33 min 47 sec) 
Heartbeat CPU 0 instructions: 74000000 cycles: 84875939 heartbeat IPC: 0.868175 cumulative IPC: 0.798709 (Simulation time: 1 hr 35 min 10 sec) 
Heartbeat CPU 0 instructions: 75000001 cycles: 86291275 heartbeat IPC: 0.706547 cumulative IPC: 0.79711 (Simulation time: 1 hr 36 min 17 sec) 
Heartbeat CPU 0 instructions: 76000000 cycles: 87430156 heartbeat IPC: 0.878054 cumulative IPC: 0.798225 (Simulation time: 1 hr 37 min 32 sec) 
Heartbeat CPU 0 instructions: 77000003 cycles: 88608238 heartbeat IPC: 0.84884 cumulative IPC: 0.798936 (Simulation time: 1 hr 38 min 46 sec) 
Heartbeat CPU 0 instructions: 78000000 cycles: 89941439 heartbeat IPC: 0.750072 cumulative IPC: 0.798171 (Simulation time: 1 hr 40 min 1 sec) 
Heartbeat CPU 0 instructions: 79000000 cycles: 91282520 heartbeat IPC: 0.745667 cumulative IPC: 0.797357 (Simulation time: 1 hr 41 min 18 sec) 
Heartbeat CPU 0 instructions: 80000000 cycles: 92668767 heartbeat IPC: 0.721372 cumulative IPC: 0.796159 (Simulation time: 1 hr 42 min 28 sec) 
Heartbeat CPU 0 instructions: 81000000 cycles: 94360175 heartbeat IPC: 0.591223 cumulative IPC: 0.792291 (Simulation time: 1 hr 43 min 43 sec) 
Heartbeat CPU 0 instructions: 82000002 cycles: 95906144 heartbeat IPC: 0.646845 cumulative IPC: 0.789825 (Simulation time: 1 hr 44 min 55 sec) 
Heartbeat CPU 0 instructions: 83000000 cycles: 97060339 heartbeat IPC: 0.866403 cumulative IPC: 0.790782 (Simulation time: 1 hr 46 min 16 sec) 
Heartbeat CPU 0 instructions: 84000000 cycles: 98017932 heartbeat IPC: 1.04428 cumulative IPC: 0.793385 (Simulation time: 1 hr 47 min 29 sec) 
Heartbeat CPU 0 instructions: 85000002 cycles: 99064293 heartbeat IPC: 0.955695 cumulative IPC: 0.795185 (Simulation time: 1 hr 48 min 46 sec) 
Heartbeat CPU 0 instructions: 86000002 cycles: 100040013 heartbeat IPC: 1.02488 cumulative IPC: 0.797537 (Simulation time: 1 hr 49 min 58 sec) 
Heartbeat CPU 0 instructions: 87000001 cycles: 101040210 heartbeat IPC: 0.999802 cumulative IPC: 0.799638 (Simulation time: 1 hr 51 min 17 sec) 
Heartbeat CPU 0 instructions: 88000000 cycles: 102336608 heartbeat IPC: 0.771367 cumulative IPC: 0.799263 (Simulation time: 1 hr 52 min 26 sec) 
Heartbeat CPU 0 instructions: 89000000 cycles: 103834786 heartbeat IPC: 0.667477 cumulative IPC: 0.79727 (Simulation time: 1 hr 53 min 53 sec) 
Heartbeat CPU 0 instructions: 90000002 cycles: 105322608 heartbeat IPC: 0.672125 cumulative IPC: 0.795419 (Simulation time: 1 hr 55 min 7 sec) 
Heartbeat CPU 0 instructions: 91000000 cycles: 107020369 heartbeat IPC: 0.58901 cumulative IPC: 0.791992 (Simulation time: 1 hr 56 min 20 sec) 
Heartbeat CPU 0 instructions: 92000000 cycles: 108512883 heartbeat IPC: 0.67001 cumulative IPC: 0.790238 (Simulation time: 1 hr 57 min 35 sec) 
Heartbeat CPU 0 instructions: 93000001 cycles: 109771809 heartbeat IPC: 0.794329 cumulative IPC: 0.790287 (Simulation time: 1 hr 58 min 57 sec) 
Heartbeat CPU 0 instructions: 94000000 cycles: 111509468 heartbeat IPC: 0.575486 cumulative IPC: 0.786791 (Simulation time: 2 hr 0 min 6 sec) 
Heartbeat CPU 0 instructions: 95000002 cycles: 113105185 heartbeat IPC: 0.626679 cumulative IPC: 0.784433 (Simulation time: 2 hr 1 min 23 sec) 
Heartbeat CPU 0 instructions: 96000000 cycles: 114706056 heartbeat IPC: 0.624659 cumulative IPC: 0.782107 (Simulation time: 2 hr 2 min 37 sec) 
Heartbeat CPU 0 instructions: 97000000 cycles: 116095533 heartbeat IPC: 0.719695 cumulative IPC: 0.781328 (Simulation time: 2 hr 3 min 47 sec) 
Heartbeat CPU 0 instructions: 98000000 cycles: 117372016 heartbeat IPC: 0.783403 cumulative IPC: 0.781352 (Simulation time: 2 hr 4 min 59 sec) 
Heartbeat CPU 0 instructions: 99000003 cycles: 118503340 heartbeat IPC: 0.883923 cumulative IPC: 0.782372 (Simulation time: 2 hr 6 min 22 sec) 
Heartbeat CPU 0 instructions: 100000000 cycles: 119963879 heartbeat IPC: 0.684677 cumulative IPC: 0.781133 (Simulation time: 2 hr 7 min 34 sec) 
Heartbeat CPU 0 instructions: 101000000 cycles: 121470072 heartbeat IPC: 0.663926 cumulative IPC: 0.779621 (Simulation time: 2 hr 8 min 41 sec) 
Heartbeat CPU 0 instructions: 102000001 cycles: 123161237 heartbeat IPC: 0.591309 cumulative IPC: 0.776931 (Simulation time: 2 hr 9 min 54 sec) 
Heartbeat CPU 0 instructions: 103000002 cycles: 124471933 heartbeat IPC: 0.762954 cumulative IPC: 0.776778 (Simulation time: 2 hr 11 min 12 sec) 
Heartbeat CPU 0 instructions: 104000000 cycles: 126171274 heartbeat IPC: 0.588462 cumulative IPC: 0.774143 (Simulation time: 2 hr 12 min 22 sec) 
Heartbeat CPU 0 instructions: 105000002 cycles: 127149760 heartbeat IPC: 1.02199 cumulative IPC: 0.776124 (Simulation time: 2 hr 13 min 33 sec) 
Heartbeat CPU 0 instructions: 106000000 cycles: 128681424 heartbeat IPC: 0.652883 cumulative IPC: 0.774601 (Simulation time: 2 hr 14 min 41 sec) 
Heartbeat CPU 0 instructions: 107000002 cycles: 130239528 heartbeat IPC: 0.641807 cumulative IPC: 0.772952 (Simulation time: 2 hr 15 min 50 sec) 
Heartbeat CPU 0 instructions: 108000000 cycles: 131549425 heartbeat IPC: 0.763417 cumulative IPC: 0.772854 (Simulation time: 2 hr 17 min 8 sec) 
Heartbeat CPU 0 instructions: 109000002 cycles: 133247006 heartbeat IPC: 0.589075 cumulative IPC: 0.770426 (Simulation time: 2 hr 18 min 15 sec) 
Heartbeat CPU 0 instructions: 110000000 cycles: 134479409 heartbeat IPC: 0.811421 cumulative IPC: 0.770815 (Simulation time: 2 hr 19 min 25 sec) 
Finished CPU 0 instructions: 100000003 cycles: 129732754 cummulative IPC: 0.770815 (Simulation time: 2 hr 19 min 25 sec) 

ChampSim completed all CPUs

Region of Interest Statistics

CPU 0 cummulative IPC: 0.770815 instructions: 100000003 cycles: 129732754
LLC TOTAL     ACCESS:    1571424  HIT:    1423074  MISS:     148350
LLC LOAD      ACCESS:     429780  HIT:     408112  MISS:      21668
LLC RFO       ACCESS:     294156  HIT:     233473  MISS:      60683
LLC PREFETCH  ACCESS:     521519  HIT:     466478  MISS:      55041
LLC WRITEBACK ACCESS:     325969  HIT:     315011  MISS:      10958
Insertion Distribution: 
	LOAD 23972 0 0 0 0 0 0 0 0 0 0 0 0 0 7298 297 
	RFO 33997 0 0 0 0 0 0 0 0 0 0 0 0 0 24451 14919 
	PREF 0 14741 0 0 0 0 0 0 0 0 0 0 0 0 22918 31203 
	WRITEBACK 0 0 0 0 0 0 0 0 0 0 0 0 0 0 0 11784 
Total Prefetch Downgrades: 20010
