
*** ChampSim Multicore Out-of-Order Simulator ***

Warmup Instructions: 10000000
Simulation Instructions: 100000000
Configuration: 2
Number of CPUs: 1
LLC sets: 2048
LLC ways: 16
Off-chip DRAM Channels: 1 Width: 64-bit Data Rate: 1600 MT/s

CPU 0 runs /datasets/cs240c-wi22-a00-public/data/Assignment2-gz/astar_163B.trace.gz
CPU 0 L1D next line prefetcher
CPU 0 L2C IP-based stride prefetcher
Initialize SRRIP state
Heartbeat CPU 0 instructions: 1000002 cycles: 531212 heartbeat IPC: 1.88249 cumulative IPC: 1.88249 (Simulation time: 0 hr 1 min 35 sec) 
Heartbeat CPU 0 instructions: 2000003 cycles: 1060822 heartbeat IPC: 1.88818 cumulative IPC: 1.88533 (Simulation time: 0 hr 3 min 6 sec) 
Heartbeat CPU 0 instructions: 3000003 cycles: 1590855 heartbeat IPC: 1.88668 cumulative IPC: 1.88578 (Simulation time: 0 hr 4 min 43 sec) 
Heartbeat CPU 0 instructions: 4000000 cycles: 2120959 heartbeat IPC: 1.88642 cumulative IPC: 1.88594 (Simulation time: 0 hr 6 min 14 sec) 
Heartbeat CPU 0 instructions: 5000000 cycles: 2652872 heartbeat IPC: 1.88001 cumulative IPC: 1.88475 (Simulation time: 0 hr 7 min 46 sec) 
Heartbeat CPU 0 instructions: 6000002 cycles: 3181386 heartbeat IPC: 1.8921 cumulative IPC: 1.88597 (Simulation time: 0 hr 9 min 14 sec) 
Heartbeat CPU 0 instructions: 7000003 cycles: 3710910 heartbeat IPC: 1.88849 cumulative IPC: 1.88633 (Simulation time: 0 hr 10 min 43 sec) 
Heartbeat CPU 0 instructions: 8000000 cycles: 4240193 heartbeat IPC: 1.88934 cumulative IPC: 1.88671 (Simulation time: 0 hr 12 min 9 sec) 
Heartbeat CPU 0 instructions: 9000000 cycles: 4771206 heartbeat IPC: 1.88319 cumulative IPC: 1.88632 (Simulation time: 0 hr 13 min 37 sec) 
Heartbeat CPU 0 instructions: 10000001 cycles: 5301285 heartbeat IPC: 1.88651 cumulative IPC: 1.88634 (Simulation time: 0 hr 15 min 3 sec) 

Warmup complete CPU 0 instructions: 10000001 cycles: 5301285 (Simulation time: 0 hr 15 min 3 sec) 

Heartbeat CPU 0 instructions: 11000003 cycles: 7523134 heartbeat IPC: 0.450076 cumulative IPC: 0.450076 (Simulation time: 0 hr 16 min 52 sec) 
Heartbeat CPU 0 instructions: 12000000 cycles: 9771803 heartbeat IPC: 0.444706 cumulative IPC: 0.447375 (Simulation time: 0 hr 18 min 32 sec) 
Heartbeat CPU 0 instructions: 13000000 cycles: 12024391 heartbeat IPC: 0.443934 cumulative IPC: 0.446222 (Simulation time: 0 hr 20 min 8 sec) 
Heartbeat CPU 0 instructions: 14000000 cycles: 14280365 heartbeat IPC: 0.443268 cumulative IPC: 0.44548 (Simulation time: 0 hr 21 min 44 sec) 
Heartbeat CPU 0 instructions: 15000000 cycles: 16602663 heartbeat IPC: 0.430608 cumulative IPC: 0.442424 (Simulation time: 0 hr 23 min 22 sec) 
Heartbeat CPU 0 instructions: 16000000 cycles: 18964987 heartbeat IPC: 0.423312 cumulative IPC: 0.43912 (Simulation time: 0 hr 25 min 0 sec) 
Heartbeat CPU 0 instructions: 17000003 cycles: 21281291 heartbeat IPC: 0.431724 cumulative IPC: 0.438048 (Simulation time: 0 hr 26 min 35 sec) 
Heartbeat CPU 0 instructions: 18000002 cycles: 23583700 heartbeat IPC: 0.434327 cumulative IPC: 0.437579 (Simulation time: 0 hr 28 min 11 sec) 
Heartbeat CPU 0 instructions: 19000000 cycles: 25888674 heartbeat IPC: 0.433843 cumulative IPC: 0.437161 (Simulation time: 0 hr 29 min 50 sec) 
Heartbeat CPU 0 instructions: 20000000 cycles: 28195705 heartbeat IPC: 0.433458 cumulative IPC: 0.436788 (Simulation time: 0 hr 31 min 29 sec) 
Heartbeat CPU 0 instructions: 21000003 cycles: 30543828 heartbeat IPC: 0.425873 cumulative IPC: 0.435772 (Simulation time: 0 hr 33 min 4 sec) 
Heartbeat CPU 0 instructions: 22000002 cycles: 33005304 heartbeat IPC: 0.40626 cumulative IPC: 0.43315 (Simulation time: 0 hr 34 min 41 sec) 
Heartbeat CPU 0 instructions: 23000001 cycles: 35425377 heartbeat IPC: 0.41321 cumulative IPC: 0.431548 (Simulation time: 0 hr 36 min 18 sec) 
Heartbeat CPU 0 instructions: 24000000 cycles: 37868428 heartbeat IPC: 0.409324 cumulative IPC: 0.429881 (Simulation time: 0 hr 37 min 55 sec) 
Heartbeat CPU 0 instructions: 25000003 cycles: 40045467 heartbeat IPC: 0.459341 cumulative IPC: 0.431727 (Simulation time: 0 hr 39 min 30 sec) 
Heartbeat CPU 0 instructions: 26000003 cycles: 41795002 heartbeat IPC: 0.57158 cumulative IPC: 0.438432 (Simulation time: 0 hr 41 min 9 sec) 
Heartbeat CPU 0 instructions: 27000000 cycles: 43619920 heartbeat IPC: 0.547968 cumulative IPC: 0.443648 (Simulation time: 0 hr 42 min 46 sec) 
Heartbeat CPU 0 instructions: 28000000 cycles: 45560003 heartbeat IPC: 0.515442 cumulative IPC: 0.447108 (Simulation time: 0 hr 44 min 25 sec) 
Heartbeat CPU 0 instructions: 29000000 cycles: 47495194 heartbeat IPC: 0.516745 cumulative IPC: 0.450302 (Simulation time: 0 hr 46 min 1 sec) 
Heartbeat CPU 0 instructions: 30000000 cycles: 49417915 heartbeat IPC: 0.520096 cumulative IPC: 0.453344 (Simulation time: 0 hr 47 min 42 sec) 
Heartbeat CPU 0 instructions: 31000001 cycles: 51284487 heartbeat IPC: 0.535742 cumulative IPC: 0.456689 (Simulation time: 0 hr 49 min 23 sec) 
Heartbeat CPU 0 instructions: 32000000 cycles: 53189020 heartbeat IPC: 0.525063 cumulative IPC: 0.459408 (Simulation time: 0 hr 51 min 7 sec) 
Heartbeat CPU 0 instructions: 33000000 cycles: 55076355 heartbeat IPC: 0.529848 cumulative IPC: 0.462079 (Simulation time: 0 hr 52 min 48 sec) 
Heartbeat CPU 0 instructions: 34000001 cycles: 56938793 heartbeat IPC: 0.536931 cumulative IPC: 0.464778 (Simulation time: 0 hr 54 min 39 sec) 
Heartbeat CPU 0 instructions: 35000001 cycles: 58817381 heartbeat IPC: 0.532315 cumulative IPC: 0.467149 (Simulation time: 0 hr 56 min 30 sec) 
Heartbeat CPU 0 instructions: 36000000 cycles: 60681606 heartbeat IPC: 0.536415 cumulative IPC: 0.469481 (Simulation time: 0 hr 58 min 13 sec) 
Heartbeat CPU 0 instructions: 37000000 cycles: 62630565 heartbeat IPC: 0.513094 cumulative IPC: 0.470964 (Simulation time: 0 hr 59 min 57 sec) 
Heartbeat CPU 0 instructions: 38000000 cycles: 64525316 heartbeat IPC: 0.527774 cumulative IPC: 0.472781 (Simulation time: 1 hr 1 min 56 sec) 
Heartbeat CPU 0 instructions: 39000001 cycles: 66381512 heartbeat IPC: 0.538737 cumulative IPC: 0.474785 (Simulation time: 1 hr 3 min 48 sec) 
Heartbeat CPU 0 instructions: 40000000 cycles: 68264880 heartbeat IPC: 0.530963 cumulative IPC: 0.476466 (Simulation time: 1 hr 5 min 41 sec) 
Heartbeat CPU 0 instructions: 41000001 cycles: 70188569 heartbeat IPC: 0.519835 cumulative IPC: 0.477752 (Simulation time: 1 hr 7 min 25 sec) 
Heartbeat CPU 0 instructions: 42000001 cycles: 72182531 heartbeat IPC: 0.501514 cumulative IPC: 0.47846 (Simulation time: 1 hr 9 min 6 sec) 
Heartbeat CPU 0 instructions: 43000001 cycles: 74211772 heartbeat IPC: 0.492795 cumulative IPC: 0.478882 (Simulation time: 1 hr 10 min 50 sec) 
Heartbeat CPU 0 instructions: 44000000 cycles: 76268975 heartbeat IPC: 0.486096 cumulative IPC: 0.479091 (Simulation time: 1 hr 12 min 34 sec) 
Heartbeat CPU 0 instructions: 45000000 cycles: 78364741 heartbeat IPC: 0.477152 cumulative IPC: 0.479036 (Simulation time: 1 hr 14 min 10 sec) 
Heartbeat CPU 0 instructions: 46000002 cycles: 80274682 heartbeat IPC: 0.523577 cumulative IPC: 0.48017 (Simulation time: 1 hr 16 min 0 sec) 
Heartbeat CPU 0 instructions: 47000000 cycles: 82199130 heartbeat IPC: 0.519628 cumulative IPC: 0.481158 (Simulation time: 1 hr 17 min 45 sec) 
Heartbeat CPU 0 instructions: 48000000 cycles: 84146120 heartbeat IPC: 0.513613 cumulative IPC: 0.481959 (Simulation time: 1 hr 19 min 29 sec) 
Heartbeat CPU 0 instructions: 49000003 cycles: 86104495 heartbeat IPC: 0.510629 cumulative IPC: 0.482654 (Simulation time: 1 hr 21 min 11 sec) 
Heartbeat CPU 0 instructions: 50000001 cycles: 88018956 heartbeat IPC: 0.522339 cumulative IPC: 0.483573 (Simulation time: 1 hr 22 min 53 sec) 
Heartbeat CPU 0 instructions: 51000003 cycles: 89954363 heartbeat IPC: 0.516688 cumulative IPC: 0.48433 (Simulation time: 1 hr 24 min 36 sec) 
Heartbeat CPU 0 instructions: 52000000 cycles: 91983831 heartbeat IPC: 0.492738 cumulative IPC: 0.484527 (Simulation time: 1 hr 26 min 15 sec) 
Heartbeat CPU 0 instructions: 53000001 cycles: 93965987 heartbeat IPC: 0.504502 cumulative IPC: 0.484973 (Simulation time: 1 hr 27 min 50 sec) 
Heartbeat CPU 0 instructions: 54000003 cycles: 95879027 heartbeat IPC: 0.522729 cumulative IPC: 0.485771 (Simulation time: 1 hr 29 min 34 sec) 
Heartbeat CPU 0 instructions: 55000000 cycles: 97769567 heartbeat IPC: 0.528948 cumulative IPC: 0.486653 (Simulation time: 1 hr 31 min 19 sec) 
Heartbeat CPU 0 instructions: 56000000 cycles: 99690706 heartbeat IPC: 0.520525 cumulative IPC: 0.487343 (Simulation time: 1 hr 33 min 6 sec) 
Heartbeat CPU 0 instructions: 57000000 cycles: 101588749 heartbeat IPC: 0.526858 cumulative IPC: 0.488122 (Simulation time: 1 hr 34 min 55 sec) 
Heartbeat CPU 0 instructions: 58000001 cycles: 103535617 heartbeat IPC: 0.513646 cumulative IPC: 0.488628 (Simulation time: 1 hr 36 min 38 sec) 
Heartbeat CPU 0 instructions: 59000003 cycles: 105483031 heartbeat IPC: 0.513503 cumulative IPC: 0.489111 (Simulation time: 1 hr 38 min 26 sec) 
Heartbeat CPU 0 instructions: 60000000 cycles: 107402882 heartbeat IPC: 0.520872 cumulative IPC: 0.489708 (Simulation time: 1 hr 40 min 23 sec) 
Heartbeat CPU 0 instructions: 61000002 cycles: 109320531 heartbeat IPC: 0.521473 cumulative IPC: 0.490294 (Simulation time: 1 hr 42 min 24 sec) 
Heartbeat CPU 0 instructions: 62000001 cycles: 111235310 heartbeat IPC: 0.522253 cumulative IPC: 0.490872 (Simulation time: 1 hr 44 min 29 sec) 
Heartbeat CPU 0 instructions: 63000001 cycles: 113316164 heartbeat IPC: 0.480572 cumulative IPC: 0.490673 (Simulation time: 1 hr 46 min 23 sec) 
Heartbeat CPU 0 instructions: 64000000 cycles: 115273842 heartbeat IPC: 0.510809 cumulative IPC: 0.491032 (Simulation time: 1 hr 48 min 20 sec) 
Heartbeat CPU 0 instructions: 65000000 cycles: 117217836 heartbeat IPC: 0.514405 cumulative IPC: 0.491438 (Simulation time: 1 hr 50 min 25 sec) 
Heartbeat CPU 0 instructions: 66000000 cycles: 119177112 heartbeat IPC: 0.510393 cumulative IPC: 0.491764 (Simulation time: 1 hr 52 min 29 sec) 
Heartbeat CPU 0 instructions: 67000003 cycles: 121122053 heartbeat IPC: 0.514156 cumulative IPC: 0.49214 (Simulation time: 1 hr 54 min 37 sec) 
Heartbeat CPU 0 instructions: 68000000 cycles: 123056281 heartbeat IPC: 0.517001 cumulative IPC: 0.492548 (Simulation time: 1 hr 56 min 45 sec) 
Heartbeat CPU 0 instructions: 69000000 cycles: 124999982 heartbeat IPC: 0.514482 cumulative IPC: 0.492904 (Simulation time: 1 hr 58 min 41 sec) 
Heartbeat CPU 0 instructions: 70000000 cycles: 126957806 heartbeat IPC: 0.510771 cumulative IPC: 0.493192 (Simulation time: 2 hr 0 min 32 sec) 
Heartbeat CPU 0 instructions: 71000001 cycles: 128926956 heartbeat IPC: 0.507834 cumulative IPC: 0.493425 (Simulation time: 2 hr 2 min 34 sec) 
Heartbeat CPU 0 instructions: 72000000 cycles: 130885964 heartbeat IPC: 0.510462 cumulative IPC: 0.493691 (Simulation time: 2 hr 4 min 30 sec) 
Heartbeat CPU 0 instructions: 73000000 cycles: 132836014 heartbeat IPC: 0.512807 cumulative IPC: 0.493983 (Simulation time: 2 hr 6 min 33 sec) 
Heartbeat CPU 0 instructions: 74000000 cycles: 134783554 heartbeat IPC: 0.513468 cumulative IPC: 0.494276 (Simulation time: 2 hr 8 min 33 sec) 
Heartbeat CPU 0 instructions: 75000001 cycles: 136698513 heartbeat IPC: 0.522205 cumulative IPC: 0.494683 (Simulation time: 2 hr 10 min 45 sec) 
Heartbeat CPU 0 instructions: 76000000 cycles: 138632628 heartbeat IPC: 0.517032 cumulative IPC: 0.495007 (Simulation time: 2 hr 12 min 46 sec) 
Heartbeat CPU 0 instructions: 77000001 cycles: 140681312 heartbeat IPC: 0.488119 cumulative IPC: 0.494903 (Simulation time: 2 hr 14 min 29 sec) 
Heartbeat CPU 0 instructions: 78000000 cycles: 142657549 heartbeat IPC: 0.506012 cumulative IPC: 0.495063 (Simulation time: 2 hr 16 min 17 sec) 
Heartbeat CPU 0 instructions: 79000003 cycles: 144712831 heartbeat IPC: 0.486553 cumulative IPC: 0.494938 (Simulation time: 2 hr 18 min 2 sec) 
Heartbeat CPU 0 instructions: 80000000 cycles: 146877319 heartbeat IPC: 0.462002 cumulative IPC: 0.494434 (Simulation time: 2 hr 19 min 45 sec) 
Heartbeat CPU 0 instructions: 81000003 cycles: 149005581 heartbeat IPC: 0.469868 cumulative IPC: 0.49407 (Simulation time: 2 hr 21 min 27 sec) 
Heartbeat CPU 0 instructions: 82000000 cycles: 151063803 heartbeat IPC: 0.485855 cumulative IPC: 0.493954 (Simulation time: 2 hr 23 min 10 sec) 
Heartbeat CPU 0 instructions: 83000000 cycles: 153063372 heartbeat IPC: 0.500108 cumulative IPC: 0.494037 (Simulation time: 2 hr 24 min 56 sec) 
Heartbeat CPU 0 instructions: 84000000 cycles: 155055798 heartbeat IPC: 0.501901 cumulative IPC: 0.494142 (Simulation time: 2 hr 26 min 30 sec) 
Heartbeat CPU 0 instructions: 85000001 cycles: 157028011 heartbeat IPC: 0.507045 cumulative IPC: 0.49431 (Simulation time: 2 hr 28 min 0 sec) 
Heartbeat CPU 0 instructions: 86000002 cycles: 158994428 heartbeat IPC: 0.50854 cumulative IPC: 0.494492 (Simulation time: 2 hr 29 min 28 sec) 
Heartbeat CPU 0 instructions: 87000000 cycles: 161006207 heartbeat IPC: 0.497072 cumulative IPC: 0.494525 (Simulation time: 2 hr 30 min 47 sec) 
Heartbeat CPU 0 instructions: 88000000 cycles: 163074640 heartbeat IPC: 0.483458 cumulative IPC: 0.49438 (Simulation time: 2 hr 31 min 57 sec) 
Heartbeat CPU 0 instructions: 89000003 cycles: 165065535 heartbeat IPC: 0.502288 cumulative IPC: 0.494479 (Simulation time: 2 hr 33 min 9 sec) 
Heartbeat CPU 0 instructions: 90000000 cycles: 167041575 heartbeat IPC: 0.506061 cumulative IPC: 0.49462 (Simulation time: 2 hr 34 min 19 sec) 
Heartbeat CPU 0 instructions: 91000000 cycles: 169021174 heartbeat IPC: 0.505153 cumulative IPC: 0.494747 (Simulation time: 2 hr 35 min 24 sec) 
Heartbeat CPU 0 instructions: 92000000 cycles: 171013475 heartbeat IPC: 0.501932 cumulative IPC: 0.494834 (Simulation time: 2 hr 36 min 27 sec) 
Heartbeat CPU 0 instructions: 93000003 cycles: 172969780 heartbeat IPC: 0.511169 cumulative IPC: 0.495024 (Simulation time: 2 hr 37 min 38 sec) 
Heartbeat CPU 0 instructions: 94000000 cycles: 174913897 heartbeat IPC: 0.514371 cumulative IPC: 0.495246 (Simulation time: 2 hr 38 min 47 sec) 
Heartbeat CPU 0 instructions: 95000000 cycles: 176882802 heartbeat IPC: 0.507897 cumulative IPC: 0.495391 (Simulation time: 2 hr 39 min 49 sec) 
Heartbeat CPU 0 instructions: 96000000 cycles: 178881395 heartbeat IPC: 0.500352 cumulative IPC: 0.495448 (Simulation time: 2 hr 40 min 54 sec) 
Heartbeat CPU 0 instructions: 97000000 cycles: 180882797 heartbeat IPC: 0.49965 cumulative IPC: 0.495496 (Simulation time: 2 hr 41 min 53 sec) 
Heartbeat CPU 0 instructions: 98000000 cycles: 182867794 heartbeat IPC: 0.503779 cumulative IPC: 0.495589 (Simulation time: 2 hr 42 min 51 sec) 
Heartbeat CPU 0 instructions: 99000000 cycles: 184948774 heartbeat IPC: 0.480543 cumulative IPC: 0.495415 (Simulation time: 2 hr 43 min 40 sec) 
Heartbeat CPU 0 instructions: 100000000 cycles: 186959056 heartbeat IPC: 0.497443 cumulative IPC: 0.495437 (Simulation time: 2 hr 44 min 30 sec) 
Heartbeat CPU 0 instructions: 101000000 cycles: 189010568 heartbeat IPC: 0.487445 cumulative IPC: 0.495348 (Simulation time: 2 hr 45 min 17 sec) 
Heartbeat CPU 0 instructions: 102000003 cycles: 191025129 heartbeat IPC: 0.496388 cumulative IPC: 0.495359 (Simulation time: 2 hr 45 min 58 sec) 
Heartbeat CPU 0 instructions: 103000000 cycles: 192988321 heartbeat IPC: 0.509373 cumulative IPC: 0.495506 (Simulation time: 2 hr 46 min 36 sec) 
Heartbeat CPU 0 instructions: 104000000 cycles: 194944003 heartbeat IPC: 0.511331 cumulative IPC: 0.495669 (Simulation time: 2 hr 47 min 18 sec) 
Heartbeat CPU 0 instructions: 105000002 cycles: 196901441 heartbeat IPC: 0.510873 cumulative IPC: 0.495824 (Simulation time: 2 hr 47 min 58 sec) 
Heartbeat CPU 0 instructions: 106000003 cycles: 198839338 heartbeat IPC: 0.516024 cumulative IPC: 0.496026 (Simulation time: 2 hr 48 min 37 sec) 
Heartbeat CPU 0 instructions: 107000000 cycles: 200783967 heartbeat IPC: 0.514235 cumulative IPC: 0.496208 (Simulation time: 2 hr 49 min 18 sec) 
Heartbeat CPU 0 instructions: 108000000 cycles: 202847432 heartbeat IPC: 0.484622 cumulative IPC: 0.496087 (Simulation time: 2 hr 49 min 51 sec) 
Heartbeat CPU 0 instructions: 109000003 cycles: 204871519 heartbeat IPC: 0.494051 cumulative IPC: 0.496066 (Simulation time: 2 hr 50 min 20 sec) 
Heartbeat CPU 0 instructions: 110000002 cycles: 206874378 heartbeat IPC: 0.499286 cumulative IPC: 0.496098 (Simulation time: 2 hr 50 min 50 sec) 
Finished CPU 0 instructions: 100000001 cycles: 201573093 cummulative IPC: 0.496098 (Simulation time: 2 hr 50 min 50 sec) 

ChampSim completed all CPUs

Region of Interest Statistics

CPU 0 cummulative IPC: 0.496098 instructions: 100000001 cycles: 201573093
LLC TOTAL     ACCESS:     479214  HIT:     182279  MISS:     296935
LLC LOAD      ACCESS:     108308  HIT:      47808  MISS:      60500
LLC RFO       ACCESS:      72099  HIT:      11673  MISS:      60426
LLC PREFETCH  ACCESS:     138948  HIT:      49817  MISS:      89131
LLC WRITEBACK ACCESS:     159859  HIT:      72981  MISS:      86878
Insertion Distribution: 
	LOAD 12274 0 0 0 0 0 0 0 0 0 0 0 0 0 29647 32683 
	RFO 0 0 0 0 0 0 0 0 0 0 0 0 0 0 2877 61427 
	PREF 0 7808 0 0 0 0 0 0 0 0 0 0 0 0 23829 78484 
	WRITEBACK 0 0 0 0 0 0 0 0 0 0 0 0 0 0 0 88522 
Total Prefetch Downgrades: 7983
