
*** ChampSim Multicore Out-of-Order Simulator ***

Warmup Instructions: 10000000
Simulation Instructions: 100000000
Configuration: 2
Number of CPUs: 1
LLC sets: 2048
LLC ways: 16
Off-chip DRAM Channels: 1 Width: 64-bit Data Rate: 1600 MT/s

CPU 0 runs /datasets/cs240c-wi22-a00-public/data/Assignment2-gz/GemsFDTD_109B.trace.gz
CPU 0 L1D next line prefetcher
CPU 0 L2C IP-based stride prefetcher
Initialize SRRIP state
Heartbeat CPU 0 instructions: 1000002 cycles: 579772 heartbeat IPC: 1.72482 cumulative IPC: 1.72482 (Simulation time: 0 hr 1 min 45 sec) 
Heartbeat CPU 0 instructions: 2000001 cycles: 1159543 heartbeat IPC: 1.72482 cumulative IPC: 1.72482 (Simulation time: 0 hr 3 min 33 sec) 
Heartbeat CPU 0 instructions: 3000000 cycles: 1738739 heartbeat IPC: 1.72653 cumulative IPC: 1.72539 (Simulation time: 0 hr 5 min 21 sec) 
Heartbeat CPU 0 instructions: 4000000 cycles: 2317733 heartbeat IPC: 1.72713 cumulative IPC: 1.72582 (Simulation time: 0 hr 7 min 10 sec) 
Heartbeat CPU 0 instructions: 5000000 cycles: 2897548 heartbeat IPC: 1.72469 cumulative IPC: 1.7256 (Simulation time: 0 hr 8 min 55 sec) 
Heartbeat CPU 0 instructions: 6000002 cycles: 3478271 heartbeat IPC: 1.72199 cumulative IPC: 1.725 (Simulation time: 0 hr 10 min 41 sec) 
Heartbeat CPU 0 instructions: 7000001 cycles: 4058948 heartbeat IPC: 1.72213 cumulative IPC: 1.72459 (Simulation time: 0 hr 12 min 22 sec) 
Heartbeat CPU 0 instructions: 8000000 cycles: 4639137 heartbeat IPC: 1.72357 cumulative IPC: 1.72446 (Simulation time: 0 hr 14 min 0 sec) 
Heartbeat CPU 0 instructions: 9000002 cycles: 5219298 heartbeat IPC: 1.72366 cumulative IPC: 1.72437 (Simulation time: 0 hr 15 min 47 sec) 
Heartbeat CPU 0 instructions: 10000001 cycles: 5799491 heartbeat IPC: 1.72356 cumulative IPC: 1.72429 (Simulation time: 0 hr 17 min 35 sec) 

Warmup complete CPU 0 instructions: 10000001 cycles: 5799491 (Simulation time: 0 hr 17 min 35 sec) 

Heartbeat CPU 0 instructions: 11000002 cycles: 6842069 heartbeat IPC: 0.959162 cumulative IPC: 0.959162 (Simulation time: 0 hr 19 min 29 sec) 
Heartbeat CPU 0 instructions: 12000000 cycles: 7897487 heartbeat IPC: 0.94749 cumulative IPC: 0.95329 (Simulation time: 0 hr 21 min 15 sec) 
Heartbeat CPU 0 instructions: 13000001 cycles: 8997202 heartbeat IPC: 0.909327 cumulative IPC: 0.938171 (Simulation time: 0 hr 23 min 2 sec) 
Heartbeat CPU 0 instructions: 14000001 cycles: 10067290 heartbeat IPC: 0.934503 cumulative IPC: 0.937251 (Simulation time: 0 hr 24 min 57 sec) 
Heartbeat CPU 0 instructions: 15000000 cycles: 11136566 heartbeat IPC: 0.935211 cumulative IPC: 0.936843 (Simulation time: 0 hr 26 min 46 sec) 
Heartbeat CPU 0 instructions: 16000000 cycles: 12205020 heartbeat IPC: 0.935932 cumulative IPC: 0.936691 (Simulation time: 0 hr 28 min 36 sec) 
Heartbeat CPU 0 instructions: 17000000 cycles: 13292344 heartbeat IPC: 0.919689 cumulative IPC: 0.934223 (Simulation time: 0 hr 30 min 26 sec) 
Heartbeat CPU 0 instructions: 18000003 cycles: 14341896 heartbeat IPC: 0.95279 cumulative IPC: 0.936505 (Simulation time: 0 hr 32 min 20 sec) 
Heartbeat CPU 0 instructions: 19000001 cycles: 15405931 heartbeat IPC: 0.939817 cumulative IPC: 0.936872 (Simulation time: 0 hr 34 min 9 sec) 
Heartbeat CPU 0 instructions: 20000000 cycles: 16646440 heartbeat IPC: 0.80612 cumulative IPC: 0.921918 (Simulation time: 0 hr 35 min 52 sec) 
Heartbeat CPU 0 instructions: 21000001 cycles: 17925781 heartbeat IPC: 0.781653 cumulative IPC: 0.90712 (Simulation time: 0 hr 37 min 42 sec) 
Heartbeat CPU 0 instructions: 22000001 cycles: 21324361 heartbeat IPC: 0.294241 cumulative IPC: 0.772953 (Simulation time: 0 hr 39 min 34 sec) 
Heartbeat CPU 0 instructions: 23000001 cycles: 22590064 heartbeat IPC: 0.790075 cumulative IPC: 0.774244 (Simulation time: 0 hr 41 min 23 sec) 
Heartbeat CPU 0 instructions: 24000000 cycles: 26217569 heartbeat IPC: 0.275671 cumulative IPC: 0.685667 (Simulation time: 0 hr 43 min 21 sec) 
Heartbeat CPU 0 instructions: 25000003 cycles: 27463206 heartbeat IPC: 0.802805 cumulative IPC: 0.692402 (Simulation time: 0 hr 45 min 7 sec) 
Heartbeat CPU 0 instructions: 26000000 cycles: 31082592 heartbeat IPC: 0.276289 cumulative IPC: 0.632834 (Simulation time: 0 hr 47 min 0 sec) 
Heartbeat CPU 0 instructions: 27000000 cycles: 32297242 heartbeat IPC: 0.823282 cumulative IPC: 0.641564 (Simulation time: 0 hr 48 min 41 sec) 
Heartbeat CPU 0 instructions: 28000000 cycles: 35752962 heartbeat IPC: 0.289375 cumulative IPC: 0.600932 (Simulation time: 0 hr 50 min 42 sec) 
Heartbeat CPU 0 instructions: 29000000 cycles: 36971643 heartbeat IPC: 0.820559 cumulative IPC: 0.609518 (Simulation time: 0 hr 52 min 32 sec) 
Heartbeat CPU 0 instructions: 30000003 cycles: 38250272 heartbeat IPC: 0.78209 cumulative IPC: 0.616318 (Simulation time: 0 hr 54 min 3 sec) 
Heartbeat CPU 0 instructions: 31000002 cycles: 39416777 heartbeat IPC: 0.857261 cumulative IPC: 0.624679 (Simulation time: 0 hr 55 min 46 sec) 
Heartbeat CPU 0 instructions: 32000000 cycles: 40687639 heartbeat IPC: 0.786866 cumulative IPC: 0.630587 (Simulation time: 0 hr 57 min 21 sec) 
Heartbeat CPU 0 instructions: 33000003 cycles: 41850998 heartbeat IPC: 0.859582 cumulative IPC: 0.637976 (Simulation time: 0 hr 59 min 3 sec) 
Heartbeat CPU 0 instructions: 34000002 cycles: 43140603 heartbeat IPC: 0.77543 cumulative IPC: 0.642723 (Simulation time: 1 hr 0 min 40 sec) 
Heartbeat CPU 0 instructions: 35000003 cycles: 44327637 heartbeat IPC: 0.842437 cumulative IPC: 0.648876 (Simulation time: 1 hr 2 min 27 sec) 
Heartbeat CPU 0 instructions: 36000000 cycles: 45670534 heartbeat IPC: 0.744657 cumulative IPC: 0.652102 (Simulation time: 1 hr 4 min 4 sec) 
Heartbeat CPU 0 instructions: 37000000 cycles: 47000030 heartbeat IPC: 0.752165 cumulative IPC: 0.655331 (Simulation time: 1 hr 6 min 1 sec) 
Heartbeat CPU 0 instructions: 38000001 cycles: 48329568 heartbeat IPC: 0.752142 cumulative IPC: 0.658358 (Simulation time: 1 hr 7 min 53 sec) 
Heartbeat CPU 0 instructions: 39000000 cycles: 49658957 heartbeat IPC: 0.752225 cumulative IPC: 0.661203 (Simulation time: 1 hr 9 min 49 sec) 
Heartbeat CPU 0 instructions: 40000000 cycles: 50988497 heartbeat IPC: 0.75214 cumulative IPC: 0.663878 (Simulation time: 1 hr 11 min 45 sec) 
Heartbeat CPU 0 instructions: 41000000 cycles: 52251821 heartbeat IPC: 0.791563 cumulative IPC: 0.667351 (Simulation time: 1 hr 13 min 23 sec) 
Heartbeat CPU 0 instructions: 42000000 cycles: 53581302 heartbeat IPC: 0.752173 cumulative IPC: 0.669711 (Simulation time: 1 hr 15 min 15 sec) 
Heartbeat CPU 0 instructions: 43000002 cycles: 54910971 heartbeat IPC: 0.752068 cumulative IPC: 0.671941 (Simulation time: 1 hr 17 min 11 sec) 
Heartbeat CPU 0 instructions: 44000000 cycles: 56240472 heartbeat IPC: 0.75216 cumulative IPC: 0.674055 (Simulation time: 1 hr 19 min 9 sec) 
Heartbeat CPU 0 instructions: 45000001 cycles: 57569797 heartbeat IPC: 0.752262 cumulative IPC: 0.676063 (Simulation time: 1 hr 21 min 3 sec) 
Heartbeat CPU 0 instructions: 46000003 cycles: 58955602 heartbeat IPC: 0.721604 cumulative IPC: 0.677251 (Simulation time: 1 hr 22 min 54 sec) 
Heartbeat CPU 0 instructions: 47000001 cycles: 60092102 heartbeat IPC: 0.879893 cumulative IPC: 0.681492 (Simulation time: 1 hr 24 min 18 sec) 
Heartbeat CPU 0 instructions: 48000000 cycles: 61460845 heartbeat IPC: 0.730597 cumulative IPC: 0.6827 (Simulation time: 1 hr 25 min 43 sec) 
Heartbeat CPU 0 instructions: 49000003 cycles: 71056957 heartbeat IPC: 0.104209 cumulative IPC: 0.597633 (Simulation time: 1 hr 28 min 49 sec) 
Heartbeat CPU 0 instructions: 50000001 cycles: 72846538 heartbeat IPC: 0.558789 cumulative IPC: 0.596596 (Simulation time: 1 hr 30 min 41 sec) 
Heartbeat CPU 0 instructions: 51000000 cycles: 74452132 heartbeat IPC: 0.622822 cumulative IPC: 0.597209 (Simulation time: 1 hr 32 min 38 sec) 
Heartbeat CPU 0 instructions: 52000000 cycles: 76068648 heartbeat IPC: 0.618614 cumulative IPC: 0.597702 (Simulation time: 1 hr 34 min 36 sec) 
Heartbeat CPU 0 instructions: 53000000 cycles: 77674445 heartbeat IPC: 0.622744 cumulative IPC: 0.598261 (Simulation time: 1 hr 36 min 31 sec) 
Heartbeat CPU 0 instructions: 54000000 cycles: 79311022 heartbeat IPC: 0.611031 cumulative IPC: 0.598546 (Simulation time: 1 hr 38 min 29 sec) 
Heartbeat CPU 0 instructions: 55000000 cycles: 80912974 heartbeat IPC: 0.624238 cumulative IPC: 0.599093 (Simulation time: 1 hr 40 min 29 sec) 
Heartbeat CPU 0 instructions: 56000000 cycles: 82518691 heartbeat IPC: 0.622775 cumulative IPC: 0.599589 (Simulation time: 1 hr 42 min 25 sec) 
Heartbeat CPU 0 instructions: 57000003 cycles: 84172006 heartbeat IPC: 0.604847 cumulative IPC: 0.5997 (Simulation time: 1 hr 44 min 25 sec) 
Heartbeat CPU 0 instructions: 58000002 cycles: 85772295 heartbeat IPC: 0.624887 cumulative IPC: 0.600204 (Simulation time: 1 hr 46 min 22 sec) 
Heartbeat CPU 0 instructions: 59000001 cycles: 87400451 heartbeat IPC: 0.614191 cumulative IPC: 0.600483 (Simulation time: 1 hr 48 min 18 sec) 
Heartbeat CPU 0 instructions: 60000000 cycles: 89026482 heartbeat IPC: 0.614994 cumulative IPC: 0.600767 (Simulation time: 1 hr 50 min 17 sec) 
Heartbeat CPU 0 instructions: 61000000 cycles: 90624452 heartbeat IPC: 0.625794 cumulative IPC: 0.601238 (Simulation time: 1 hr 52 min 6 sec) 
Heartbeat CPU 0 instructions: 62000003 cycles: 92223839 heartbeat IPC: 0.625241 cumulative IPC: 0.601682 (Simulation time: 1 hr 54 min 6 sec) 
Heartbeat CPU 0 instructions: 63000002 cycles: 93828819 heartbeat IPC: 0.62306 cumulative IPC: 0.602072 (Simulation time: 1 hr 56 min 24 sec) 
Heartbeat CPU 0 instructions: 64000000 cycles: 95452632 heartbeat IPC: 0.615833 cumulative IPC: 0.602321 (Simulation time: 1 hr 58 min 40 sec) 
Heartbeat CPU 0 instructions: 65000003 cycles: 97089251 heartbeat IPC: 0.611018 cumulative IPC: 0.602477 (Simulation time: 2 hr 0 min 56 sec) 
Heartbeat CPU 0 instructions: 66000001 cycles: 98728367 heartbeat IPC: 0.610084 cumulative IPC: 0.602611 (Simulation time: 2 hr 3 min 15 sec) 
Heartbeat CPU 0 instructions: 67000000 cycles: 100345545 heartbeat IPC: 0.618361 cumulative IPC: 0.602881 (Simulation time: 2 hr 5 min 36 sec) 
Heartbeat CPU 0 instructions: 68000000 cycles: 101975915 heartbeat IPC: 0.613358 cumulative IPC: 0.603058 (Simulation time: 2 hr 7 min 52 sec) 
Heartbeat CPU 0 instructions: 69000000 cycles: 103602285 heartbeat IPC: 0.614866 cumulative IPC: 0.603255 (Simulation time: 2 hr 10 min 0 sec) 
Heartbeat CPU 0 instructions: 70000003 cycles: 105186873 heartbeat IPC: 0.631081 cumulative IPC: 0.603698 (Simulation time: 2 hr 11 min 58 sec) 
Heartbeat CPU 0 instructions: 71000003 cycles: 106810729 heartbeat IPC: 0.615818 cumulative IPC: 0.603893 (Simulation time: 2 hr 13 min 52 sec) 
Heartbeat CPU 0 instructions: 72000000 cycles: 108416027 heartbeat IPC: 0.622935 cumulative IPC: 0.604191 (Simulation time: 2 hr 15 min 42 sec) 
Heartbeat CPU 0 instructions: 73000002 cycles: 110042022 heartbeat IPC: 0.615009 cumulative IPC: 0.60436 (Simulation time: 2 hr 17 min 30 sec) 
Heartbeat CPU 0 instructions: 74000000 cycles: 111677719 heartbeat IPC: 0.611359 cumulative IPC: 0.604468 (Simulation time: 2 hr 19 min 21 sec) 
Heartbeat CPU 0 instructions: 75000000 cycles: 113322052 heartbeat IPC: 0.608149 cumulative IPC: 0.604524 (Simulation time: 2 hr 21 min 5 sec) 
Heartbeat CPU 0 instructions: 76000000 cycles: 114921171 heartbeat IPC: 0.625344 cumulative IPC: 0.604829 (Simulation time: 2 hr 22 min 52 sec) 
Heartbeat CPU 0 instructions: 77000003 cycles: 116554694 heartbeat IPC: 0.612176 cumulative IPC: 0.604938 (Simulation time: 2 hr 24 min 37 sec) 
Heartbeat CPU 0 instructions: 78000001 cycles: 118169386 heartbeat IPC: 0.619312 cumulative IPC: 0.605144 (Simulation time: 2 hr 26 min 13 sec) 
Heartbeat CPU 0 instructions: 79000001 cycles: 119763990 heartbeat IPC: 0.627115 cumulative IPC: 0.605452 (Simulation time: 2 hr 27 min 39 sec) 
Heartbeat CPU 0 instructions: 80000000 cycles: 121371434 heartbeat IPC: 0.622105 cumulative IPC: 0.605683 (Simulation time: 2 hr 29 min 2 sec) 
Heartbeat CPU 0 instructions: 81000001 cycles: 122981337 heartbeat IPC: 0.621156 cumulative IPC: 0.605896 (Simulation time: 2 hr 30 min 23 sec) 
Heartbeat CPU 0 instructions: 82000000 cycles: 124592902 heartbeat IPC: 0.620514 cumulative IPC: 0.606094 (Simulation time: 2 hr 31 min 33 sec) 
Heartbeat CPU 0 instructions: 83000003 cycles: 126200029 heartbeat IPC: 0.62223 cumulative IPC: 0.60631 (Simulation time: 2 hr 32 min 44 sec) 
Heartbeat CPU 0 instructions: 84000000 cycles: 127794269 heartbeat IPC: 0.627256 cumulative IPC: 0.606583 (Simulation time: 2 hr 33 min 51 sec) 
Heartbeat CPU 0 instructions: 85000001 cycles: 129420043 heartbeat IPC: 0.615092 cumulative IPC: 0.606695 (Simulation time: 2 hr 34 min 55 sec) 
Heartbeat CPU 0 instructions: 86000001 cycles: 131044474 heartbeat IPC: 0.6156 cumulative IPC: 0.606811 (Simulation time: 2 hr 35 min 55 sec) 
Heartbeat CPU 0 instructions: 87000002 cycles: 132664302 heartbeat IPC: 0.61735 cumulative IPC: 0.606945 (Simulation time: 2 hr 36 min 56 sec) 
Heartbeat CPU 0 instructions: 88000000 cycles: 134304138 heartbeat IPC: 0.609816 cumulative IPC: 0.606982 (Simulation time: 2 hr 38 min 1 sec) 
Heartbeat CPU 0 instructions: 89000003 cycles: 135947626 heartbeat IPC: 0.608464 cumulative IPC: 0.607001 (Simulation time: 2 hr 38 min 56 sec) 
Heartbeat CPU 0 instructions: 90000000 cycles: 137597146 heartbeat IPC: 0.606235 cumulative IPC: 0.606991 (Simulation time: 2 hr 39 min 48 sec) 
Heartbeat CPU 0 instructions: 91000002 cycles: 139242556 heartbeat IPC: 0.607753 cumulative IPC: 0.607 (Simulation time: 2 hr 40 min 39 sec) 
Heartbeat CPU 0 instructions: 92000000 cycles: 140864977 heartbeat IPC: 0.616362 cumulative IPC: 0.607113 (Simulation time: 2 hr 41 min 33 sec) 
Heartbeat CPU 0 instructions: 93000001 cycles: 142495681 heartbeat IPC: 0.613233 cumulative IPC: 0.607186 (Simulation time: 2 hr 42 min 22 sec) 
Heartbeat CPU 0 instructions: 94000003 cycles: 144105971 heartbeat IPC: 0.621007 cumulative IPC: 0.607347 (Simulation time: 2 hr 43 min 9 sec) 
Heartbeat CPU 0 instructions: 95000000 cycles: 145704232 heartbeat IPC: 0.625678 cumulative IPC: 0.607556 (Simulation time: 2 hr 43 min 53 sec) 
Heartbeat CPU 0 instructions: 96000000 cycles: 147322903 heartbeat IPC: 0.617791 cumulative IPC: 0.607673 (Simulation time: 2 hr 44 min 39 sec) 
Heartbeat CPU 0 instructions: 97000002 cycles: 148940564 heartbeat IPC: 0.618178 cumulative IPC: 0.607792 (Simulation time: 2 hr 45 min 25 sec) 
Heartbeat CPU 0 instructions: 98000000 cycles: 150581289 heartbeat IPC: 0.609485 cumulative IPC: 0.607811 (Simulation time: 2 hr 46 min 2 sec) 
Heartbeat CPU 0 instructions: 99000001 cycles: 152175000 heartbeat IPC: 0.627467 cumulative IPC: 0.608025 (Simulation time: 2 hr 46 min 38 sec) 
Heartbeat CPU 0 instructions: 100000000 cycles: 153808195 heartbeat IPC: 0.612296 cumulative IPC: 0.608072 (Simulation time: 2 hr 47 min 15 sec) 
Heartbeat CPU 0 instructions: 101000001 cycles: 155442370 heartbeat IPC: 0.61193 cumulative IPC: 0.608114 (Simulation time: 2 hr 47 min 49 sec) 
Heartbeat CPU 0 instructions: 102000000 cycles: 157081035 heartbeat IPC: 0.610252 cumulative IPC: 0.608138 (Simulation time: 2 hr 48 min 22 sec) 
Heartbeat CPU 0 instructions: 103000000 cycles: 158698669 heartbeat IPC: 0.618187 cumulative IPC: 0.608244 (Simulation time: 2 hr 48 min 54 sec) 
Heartbeat CPU 0 instructions: 104000000 cycles: 160328868 heartbeat IPC: 0.613422 cumulative IPC: 0.608299 (Simulation time: 2 hr 49 min 25 sec) 
Heartbeat CPU 0 instructions: 105000000 cycles: 161967229 heartbeat IPC: 0.610366 cumulative IPC: 0.60832 (Simulation time: 2 hr 49 min 54 sec) 
Heartbeat CPU 0 instructions: 106000001 cycles: 163598084 heartbeat IPC: 0.613176 cumulative IPC: 0.60837 (Simulation time: 2 hr 50 min 20 sec) 
Heartbeat CPU 0 instructions: 107000001 cycles: 165232550 heartbeat IPC: 0.611821 cumulative IPC: 0.608406 (Simulation time: 2 hr 50 min 45 sec) 
Heartbeat CPU 0 instructions: 108000000 cycles: 166864892 heartbeat IPC: 0.612616 cumulative IPC: 0.608449 (Simulation time: 2 hr 51 min 7 sec) 
Heartbeat CPU 0 instructions: 109000003 cycles: 168458614 heartbeat IPC: 0.627464 cumulative IPC: 0.608635 (Simulation time: 2 hr 51 min 29 sec) 
Heartbeat CPU 0 instructions: 110000002 cycles: 170071782 heartbeat IPC: 0.619898 cumulative IPC: 0.608745 (Simulation time: 2 hr 51 min 50 sec) 
Finished CPU 0 instructions: 100000001 cycles: 164272291 cummulative IPC: 0.608745 (Simulation time: 2 hr 51 min 50 sec) 

ChampSim completed all CPUs

Region of Interest Statistics

CPU 0 cummulative IPC: 0.608745 instructions: 100000001 cycles: 164272291
LLC TOTAL     ACCESS:    4812593  HIT:     534795  MISS:    4277798
LLC LOAD      ACCESS:     461736  HIT:      37154  MISS:     424582
LLC RFO       ACCESS:     126472  HIT:     117063  MISS:       9409
LLC PREFETCH  ACCESS:    2860095  HIT:     131769  MISS:    2728326
LLC WRITEBACK ACCESS:    1364290  HIT:     248809  MISS:    1115481
Insertion Distribution: 
	LOAD 27180 0 0 0 0 0 0 0 0 0 0 0 0 0 53133 353803 
	RFO 51 0 0 0 0 0 0 0 0 0 0 0 0 0 8623 737 
	PREF 0 7405 0 0 0 0 0 0 0 0 0 0 0 0 189245 2769416 
	WRITEBACK 0 0 0 0 0 0 0 0 0 0 0 0 0 0 0 1230424 
Total Prefetch Downgrades: 6874
