
*** ChampSim Multicore Out-of-Order Simulator ***

Warmup Instructions: 10000000
Simulation Instructions: 100000000
Configuration: 2
Number of CPUs: 1
LLC sets: 2048
LLC ways: 16
Off-chip DRAM Channels: 1 Width: 64-bit Data Rate: 1600 MT/s

CPU 0 runs /datasets/cs240c-wi22-a00-public/data/Assignment2-gz/omnetpp_17B.trace.gz
CPU 0 L1D next line prefetcher
CPU 0 L2C IP-based stride prefetcher
Initialize SRRIP state
Heartbeat CPU 0 instructions: 1000000 cycles: 559549 heartbeat IPC: 1.78715 cumulative IPC: 1.78715 (Simulation time: 0 hr 1 min 25 sec) 
Heartbeat CPU 0 instructions: 2000002 cycles: 1133688 heartbeat IPC: 1.74174 cumulative IPC: 1.76416 (Simulation time: 0 hr 2 min 46 sec) 
Heartbeat CPU 0 instructions: 3000001 cycles: 1768996 heartbeat IPC: 1.57404 cumulative IPC: 1.69588 (Simulation time: 0 hr 4 min 0 sec) 
Heartbeat CPU 0 instructions: 4000000 cycles: 2333937 heartbeat IPC: 1.77009 cumulative IPC: 1.71384 (Simulation time: 0 hr 5 min 17 sec) 
Heartbeat CPU 0 instructions: 5000002 cycles: 2892947 heartbeat IPC: 1.78888 cumulative IPC: 1.72834 (Simulation time: 0 hr 6 min 39 sec) 
Heartbeat CPU 0 instructions: 6000000 cycles: 3471385 heartbeat IPC: 1.72879 cumulative IPC: 1.72842 (Simulation time: 0 hr 7 min 59 sec) 
Heartbeat CPU 0 instructions: 7000000 cycles: 4035776 heartbeat IPC: 1.77182 cumulative IPC: 1.73449 (Simulation time: 0 hr 9 min 22 sec) 
Heartbeat CPU 0 instructions: 8000000 cycles: 4697510 heartbeat IPC: 1.51118 cumulative IPC: 1.70303 (Simulation time: 0 hr 10 min 36 sec) 
Heartbeat CPU 0 instructions: 9000000 cycles: 5359315 heartbeat IPC: 1.51102 cumulative IPC: 1.67932 (Simulation time: 0 hr 11 min 42 sec) 
Heartbeat CPU 0 instructions: 10000001 cycles: 6020884 heartbeat IPC: 1.51156 cumulative IPC: 1.66089 (Simulation time: 0 hr 12 min 49 sec) 

Warmup complete CPU 0 instructions: 10000001 cycles: 6020884 (Simulation time: 0 hr 12 min 49 sec) 

Heartbeat CPU 0 instructions: 11000001 cycles: 7065700 heartbeat IPC: 0.957106 cumulative IPC: 0.957106 (Simulation time: 0 hr 13 min 58 sec) 
Heartbeat CPU 0 instructions: 12000000 cycles: 8110243 heartbeat IPC: 0.957355 cumulative IPC: 0.957231 (Simulation time: 0 hr 15 min 12 sec) 
Heartbeat CPU 0 instructions: 13000000 cycles: 9180135 heartbeat IPC: 0.934674 cumulative IPC: 0.949592 (Simulation time: 0 hr 16 min 23 sec) 
Heartbeat CPU 0 instructions: 14000001 cycles: 10224386 heartbeat IPC: 0.957625 cumulative IPC: 0.951587 (Simulation time: 0 hr 17 min 38 sec) 
Heartbeat CPU 0 instructions: 15000000 cycles: 11268594 heartbeat IPC: 0.957663 cumulative IPC: 0.952796 (Simulation time: 0 hr 18 min 45 sec) 
Heartbeat CPU 0 instructions: 16000000 cycles: 12312761 heartbeat IPC: 0.957701 cumulative IPC: 0.95361 (Simulation time: 0 hr 19 min 53 sec) 
Heartbeat CPU 0 instructions: 17000000 cycles: 13358298 heartbeat IPC: 0.956446 cumulative IPC: 0.954014 (Simulation time: 0 hr 21 min 1 sec) 
Heartbeat CPU 0 instructions: 18000001 cycles: 14399642 heartbeat IPC: 0.960298 cumulative IPC: 0.954795 (Simulation time: 0 hr 22 min 5 sec) 
Heartbeat CPU 0 instructions: 19000002 cycles: 15434267 heartbeat IPC: 0.966535 cumulative IPC: 0.956086 (Simulation time: 0 hr 23 min 15 sec) 
Heartbeat CPU 0 instructions: 20000000 cycles: 18693809 heartbeat IPC: 0.306791 cumulative IPC: 0.789084 (Simulation time: 0 hr 24 min 46 sec) 
Heartbeat CPU 0 instructions: 21000000 cycles: 21121676 heartbeat IPC: 0.411884 cumulative IPC: 0.728439 (Simulation time: 0 hr 26 min 5 sec) 
Heartbeat CPU 0 instructions: 22000002 cycles: 22956758 heartbeat IPC: 0.544936 cumulative IPC: 0.708555 (Simulation time: 0 hr 27 min 20 sec) 
Heartbeat CPU 0 instructions: 23000000 cycles: 26166132 heartbeat IPC: 0.311587 cumulative IPC: 0.645313 (Simulation time: 0 hr 28 min 48 sec) 
Heartbeat CPU 0 instructions: 24000000 cycles: 29379192 heartbeat IPC: 0.31123 cumulative IPC: 0.599358 (Simulation time: 0 hr 30 min 19 sec) 
Heartbeat CPU 0 instructions: 25000001 cycles: 31941110 heartbeat IPC: 0.390333 cumulative IPC: 0.578699 (Simulation time: 0 hr 31 min 47 sec) 
Heartbeat CPU 0 instructions: 26000001 cycles: 33609298 heartbeat IPC: 0.599453 cumulative IPC: 0.579954 (Simulation time: 0 hr 33 min 5 sec) 
Heartbeat CPU 0 instructions: 27000000 cycles: 36808865 heartbeat IPC: 0.312542 cumulative IPC: 0.552163 (Simulation time: 0 hr 34 min 30 sec) 
Heartbeat CPU 0 instructions: 28000000 cycles: 40009198 heartbeat IPC: 0.312467 cumulative IPC: 0.529594 (Simulation time: 0 hr 35 min 54 sec) 
Heartbeat CPU 0 instructions: 29000000 cycles: 42737570 heartbeat IPC: 0.366519 cumulative IPC: 0.517476 (Simulation time: 0 hr 37 min 19 sec) 
Heartbeat CPU 0 instructions: 30000000 cycles: 44236775 heartbeat IPC: 0.66702 cumulative IPC: 0.523342 (Simulation time: 0 hr 38 min 29 sec) 
Heartbeat CPU 0 instructions: 31000000 cycles: 47428591 heartbeat IPC: 0.313301 cumulative IPC: 0.507152 (Simulation time: 0 hr 40 min 2 sec) 
Heartbeat CPU 0 instructions: 32000000 cycles: 50623443 heartbeat IPC: 0.313004 cumulative IPC: 0.493245 (Simulation time: 0 hr 41 min 27 sec) 
Heartbeat CPU 0 instructions: 33000001 cycles: 53533765 heartbeat IPC: 0.343605 cumulative IPC: 0.484079 (Simulation time: 0 hr 42 min 54 sec) 
Heartbeat CPU 0 instructions: 34000000 cycles: 54848640 heartbeat IPC: 0.760528 cumulative IPC: 0.491524 (Simulation time: 0 hr 44 min 7 sec) 
Heartbeat CPU 0 instructions: 35000003 cycles: 58028609 heartbeat IPC: 0.314469 cumulative IPC: 0.480698 (Simulation time: 0 hr 45 min 31 sec) 
Heartbeat CPU 0 instructions: 36000000 cycles: 61254309 heartbeat IPC: 0.310009 cumulative IPC: 0.470729 (Simulation time: 0 hr 46 min 58 sec) 
Heartbeat CPU 0 instructions: 37000001 cycles: 64057057 heartbeat IPC: 0.356793 cumulative IPC: 0.465227 (Simulation time: 0 hr 48 min 18 sec) 
Heartbeat CPU 0 instructions: 38000000 cycles: 65481511 heartbeat IPC: 0.702023 cumulative IPC: 0.4709 (Simulation time: 0 hr 49 min 32 sec) 
Heartbeat CPU 0 instructions: 39000000 cycles: 68667169 heartbeat IPC: 0.313907 cumulative IPC: 0.462916 (Simulation time: 0 hr 50 min 58 sec) 
Heartbeat CPU 0 instructions: 40000000 cycles: 71854912 heartbeat IPC: 0.313702 cumulative IPC: 0.455691 (Simulation time: 0 hr 52 min 29 sec) 
Heartbeat CPU 0 instructions: 41000002 cycles: 74560432 heartbeat IPC: 0.369615 cumulative IPC: 0.452294 (Simulation time: 0 hr 53 min 49 sec) 
Heartbeat CPU 0 instructions: 42000000 cycles: 76077997 heartbeat IPC: 0.658949 cumulative IPC: 0.45677 (Simulation time: 0 hr 55 min 2 sec) 
Heartbeat CPU 0 instructions: 43000003 cycles: 81326527 heartbeat IPC: 0.19053 cumulative IPC: 0.438214 (Simulation time: 0 hr 56 min 47 sec) 
Heartbeat CPU 0 instructions: 44000000 cycles: 82373076 heartbeat IPC: 0.955519 cumulative IPC: 0.445305 (Simulation time: 0 hr 57 min 54 sec) 
Heartbeat CPU 0 instructions: 45000003 cycles: 83415856 heartbeat IPC: 0.958978 cumulative IPC: 0.452226 (Simulation time: 0 hr 59 min 2 sec) 
Heartbeat CPU 0 instructions: 46000001 cycles: 84458923 heartbeat IPC: 0.958709 cumulative IPC: 0.458961 (Simulation time: 1 hr 0 min 7 sec) 
Heartbeat CPU 0 instructions: 47000001 cycles: 85503458 heartbeat IPC: 0.957364 cumulative IPC: 0.465511 (Simulation time: 1 hr 1 min 19 sec) 
Heartbeat CPU 0 instructions: 48000000 cycles: 86546636 heartbeat IPC: 0.958608 cumulative IPC: 0.471899 (Simulation time: 1 hr 2 min 27 sec) 
Heartbeat CPU 0 instructions: 49000000 cycles: 87588442 heartbeat IPC: 0.959872 cumulative IPC: 0.478131 (Simulation time: 1 hr 3 min 34 sec) 
Heartbeat CPU 0 instructions: 50000000 cycles: 88631230 heartbeat IPC: 0.958968 cumulative IPC: 0.484201 (Simulation time: 1 hr 4 min 44 sec) 
Heartbeat CPU 0 instructions: 51000002 cycles: 89674118 heartbeat IPC: 0.958878 cumulative IPC: 0.490119 (Simulation time: 1 hr 5 min 53 sec) 
Heartbeat CPU 0 instructions: 52000000 cycles: 90718357 heartbeat IPC: 0.957633 cumulative IPC: 0.495883 (Simulation time: 1 hr 7 min 4 sec) 
Heartbeat CPU 0 instructions: 53000001 cycles: 91760829 heartbeat IPC: 0.959259 cumulative IPC: 0.501517 (Simulation time: 1 hr 8 min 12 sec) 
Heartbeat CPU 0 instructions: 54000002 cycles: 92829044 heartbeat IPC: 0.936142 cumulative IPC: 0.506865 (Simulation time: 1 hr 9 min 22 sec) 
Heartbeat CPU 0 instructions: 55000003 cycles: 93869441 heartbeat IPC: 0.961173 cumulative IPC: 0.512245 (Simulation time: 1 hr 10 min 37 sec) 
Heartbeat CPU 0 instructions: 56000000 cycles: 96063170 heartbeat IPC: 0.455843 cumulative IPC: 0.510871 (Simulation time: 1 hr 11 min 54 sec) 
Heartbeat CPU 0 instructions: 57000003 cycles: 98078195 heartbeat IPC: 0.496273 cumulative IPC: 0.510552 (Simulation time: 1 hr 13 min 13 sec) 
Heartbeat CPU 0 instructions: 58000000 cycles: 101282499 heartbeat IPC: 0.312079 cumulative IPC: 0.503876 (Simulation time: 1 hr 14 min 38 sec) 
Heartbeat CPU 0 instructions: 59000003 cycles: 104487255 heartbeat IPC: 0.312037 cumulative IPC: 0.497632 (Simulation time: 1 hr 16 min 7 sec) 
Heartbeat CPU 0 instructions: 60000000 cycles: 106837797 heartbeat IPC: 0.425433 cumulative IPC: 0.495949 (Simulation time: 1 hr 17 min 24 sec) 
Heartbeat CPU 0 instructions: 61000001 cycles: 108706927 heartbeat IPC: 0.535009 cumulative IPC: 0.49666 (Simulation time: 1 hr 18 min 40 sec) 
Heartbeat CPU 0 instructions: 62000001 cycles: 111890067 heartbeat IPC: 0.314155 cumulative IPC: 0.491172 (Simulation time: 1 hr 20 min 6 sec) 
Heartbeat CPU 0 instructions: 63000000 cycles: 115091729 heartbeat IPC: 0.312337 cumulative IPC: 0.485923 (Simulation time: 1 hr 21 min 35 sec) 
Heartbeat CPU 0 instructions: 64000000 cycles: 117599871 heartbeat IPC: 0.398702 cumulative IPC: 0.483962 (Simulation time: 1 hr 22 min 56 sec) 
Heartbeat CPU 0 instructions: 65000000 cycles: 119309089 heartbeat IPC: 0.585063 cumulative IPC: 0.485487 (Simulation time: 1 hr 24 min 12 sec) 
Heartbeat CPU 0 instructions: 66000000 cycles: 122499656 heartbeat IPC: 0.313424 cumulative IPC: 0.480774 (Simulation time: 1 hr 25 min 37 sec) 
Heartbeat CPU 0 instructions: 67000001 cycles: 125695963 heartbeat IPC: 0.312861 cumulative IPC: 0.47629 (Simulation time: 1 hr 27 min 4 sec) 
Heartbeat CPU 0 instructions: 68000000 cycles: 128379807 heartbeat IPC: 0.3726 cumulative IPC: 0.474015 (Simulation time: 1 hr 28 min 18 sec) 
Heartbeat CPU 0 instructions: 69000001 cycles: 129914714 heartbeat IPC: 0.651506 cumulative IPC: 0.476214 (Simulation time: 1 hr 29 min 30 sec) 
Heartbeat CPU 0 instructions: 70000001 cycles: 133095216 heartbeat IPC: 0.314416 cumulative IPC: 0.472165 (Simulation time: 1 hr 30 min 58 sec) 
Heartbeat CPU 0 instructions: 71000001 cycles: 136291687 heartbeat IPC: 0.312845 cumulative IPC: 0.468255 (Simulation time: 1 hr 32 min 22 sec) 
Heartbeat CPU 0 instructions: 72000000 cycles: 138993671 heartbeat IPC: 0.370098 cumulative IPC: 0.466261 (Simulation time: 1 hr 33 min 42 sec) 
Heartbeat CPU 0 instructions: 73000000 cycles: 140539657 heartbeat IPC: 0.646836 cumulative IPC: 0.468336 (Simulation time: 1 hr 34 min 54 sec) 
Heartbeat CPU 0 instructions: 74000003 cycles: 143747688 heartbeat IPC: 0.311719 cumulative IPC: 0.464688 (Simulation time: 1 hr 36 min 15 sec) 
Heartbeat CPU 0 instructions: 75000001 cycles: 146944483 heartbeat IPC: 0.312813 cumulative IPC: 0.461243 (Simulation time: 1 hr 37 min 40 sec) 
Heartbeat CPU 0 instructions: 76000000 cycles: 149533736 heartbeat IPC: 0.386211 cumulative IPC: 0.459889 (Simulation time: 1 hr 39 min 2 sec) 
Heartbeat CPU 0 instructions: 77000001 cycles: 151174227 heartbeat IPC: 0.609574 cumulative IPC: 0.461581 (Simulation time: 1 hr 40 min 18 sec) 
Heartbeat CPU 0 instructions: 78000000 cycles: 154362685 heartbeat IPC: 0.313631 cumulative IPC: 0.458401 (Simulation time: 1 hr 41 min 46 sec) 
Heartbeat CPU 0 instructions: 79000000 cycles: 157722132 heartbeat IPC: 0.297668 cumulative IPC: 0.454841 (Simulation time: 1 hr 43 min 14 sec) 
Heartbeat CPU 0 instructions: 80000000 cycles: 159532264 heartbeat IPC: 0.552446 cumulative IPC: 0.455992 (Simulation time: 1 hr 44 min 29 sec) 
Heartbeat CPU 0 instructions: 81000001 cycles: 161938593 heartbeat IPC: 0.415571 cumulative IPC: 0.455368 (Simulation time: 1 hr 45 min 48 sec) 
Heartbeat CPU 0 instructions: 82000000 cycles: 165136137 heartbeat IPC: 0.31274 cumulative IPC: 0.452502 (Simulation time: 1 hr 47 min 10 sec) 
Heartbeat CPU 0 instructions: 83000000 cycles: 168336992 heartbeat IPC: 0.312417 cumulative IPC: 0.44974 (Simulation time: 1 hr 48 min 37 sec) 
Heartbeat CPU 0 instructions: 84000000 cycles: 170118209 heartbeat IPC: 0.561414 cumulative IPC: 0.450952 (Simulation time: 1 hr 49 min 50 sec) 
Heartbeat CPU 0 instructions: 85000003 cycles: 172551493 heartbeat IPC: 0.410968 cumulative IPC: 0.450368 (Simulation time: 1 hr 51 min 11 sec) 
Heartbeat CPU 0 instructions: 86000001 cycles: 175753463 heartbeat IPC: 0.312307 cumulative IPC: 0.447763 (Simulation time: 1 hr 52 min 29 sec) 
Heartbeat CPU 0 instructions: 87000000 cycles: 178952759 heartbeat IPC: 0.312568 cumulative IPC: 0.445262 (Simulation time: 1 hr 54 min 0 sec) 
Heartbeat CPU 0 instructions: 88000000 cycles: 180593710 heartbeat IPC: 0.609403 cumulative IPC: 0.446805 (Simulation time: 1 hr 55 min 16 sec) 
Heartbeat CPU 0 instructions: 89000000 cycles: 185222229 heartbeat IPC: 0.216052 cumulative IPC: 0.440845 (Simulation time: 1 hr 57 min 1 sec) 
Heartbeat CPU 0 instructions: 90000002 cycles: 186265673 heartbeat IPC: 0.958367 cumulative IPC: 0.443841 (Simulation time: 1 hr 58 min 9 sec) 
Heartbeat CPU 0 instructions: 91000001 cycles: 187309881 heartbeat IPC: 0.957663 cumulative IPC: 0.4468 (Simulation time: 1 hr 59 min 17 sec) 
Heartbeat CPU 0 instructions: 92000000 cycles: 188353452 heartbeat IPC: 0.958247 cumulative IPC: 0.449728 (Simulation time: 2 hr 0 min 20 sec) 
Heartbeat CPU 0 instructions: 93000002 cycles: 189397717 heartbeat IPC: 0.957613 cumulative IPC: 0.45262 (Simulation time: 2 hr 1 min 28 sec) 
Heartbeat CPU 0 instructions: 94000001 cycles: 190441545 heartbeat IPC: 0.958011 cumulative IPC: 0.45548 (Simulation time: 2 hr 2 min 33 sec) 
Heartbeat CPU 0 instructions: 95000000 cycles: 191485809 heartbeat IPC: 0.957611 cumulative IPC: 0.458308 (Simulation time: 2 hr 3 min 40 sec) 
Heartbeat CPU 0 instructions: 96000000 cycles: 192530604 heartbeat IPC: 0.957126 cumulative IPC: 0.461102 (Simulation time: 2 hr 4 min 48 sec) 
Heartbeat CPU 0 instructions: 97000002 cycles: 193601456 heartbeat IPC: 0.933838 cumulative IPC: 0.463801 (Simulation time: 2 hr 5 min 51 sec) 
Heartbeat CPU 0 instructions: 98000000 cycles: 194647194 heartbeat IPC: 0.956261 cumulative IPC: 0.466531 (Simulation time: 2 hr 6 min 58 sec) 
Heartbeat CPU 0 instructions: 99000003 cycles: 195685511 heartbeat IPC: 0.9631 cumulative IPC: 0.469249 (Simulation time: 2 hr 8 min 4 sec) 
Heartbeat CPU 0 instructions: 100000000 cycles: 196721965 heartbeat IPC: 0.964825 cumulative IPC: 0.471943 (Simulation time: 2 hr 9 min 15 sec) 
Heartbeat CPU 0 instructions: 101000001 cycles: 197763108 heartbeat IPC: 0.960484 cumulative IPC: 0.474596 (Simulation time: 2 hr 10 min 23 sec) 
Heartbeat CPU 0 instructions: 102000001 cycles: 200906154 heartbeat IPC: 0.318163 cumulative IPC: 0.472073 (Simulation time: 2 hr 11 min 45 sec) 
Heartbeat CPU 0 instructions: 103000001 cycles: 202288323 heartbeat IPC: 0.723501 cumulative IPC: 0.473843 (Simulation time: 2 hr 12 min 53 sec) 
Heartbeat CPU 0 instructions: 104000000 cycles: 205180021 heartbeat IPC: 0.345817 cumulative IPC: 0.471984 (Simulation time: 2 hr 14 min 19 sec) 
Heartbeat CPU 0 instructions: 105000000 cycles: 208375525 heartbeat IPC: 0.31294 cumulative IPC: 0.469473 (Simulation time: 2 hr 15 min 42 sec) 
Heartbeat CPU 0 instructions: 106000000 cycles: 211514669 heartbeat IPC: 0.318558 cumulative IPC: 0.467167 (Simulation time: 2 hr 16 min 58 sec) 
Heartbeat CPU 0 instructions: 107000001 cycles: 213048374 heartbeat IPC: 0.652017 cumulative IPC: 0.468537 (Simulation time: 2 hr 18 min 2 sec) 
Heartbeat CPU 0 instructions: 108000000 cycles: 215790699 heartbeat IPC: 0.364654 cumulative IPC: 0.467179 (Simulation time: 2 hr 19 min 26 sec) 
Heartbeat CPU 0 instructions: 109000000 cycles: 218979018 heartbeat IPC: 0.313645 cumulative IPC: 0.46488 (Simulation time: 2 hr 20 min 46 sec) 
Heartbeat CPU 0 instructions: 110000000 cycles: 222160455 heartbeat IPC: 0.314323 cumulative IPC: 0.462664 (Simulation time: 2 hr 22 min 5 sec) 
Finished CPU 0 instructions: 100000003 cycles: 216139576 cummulative IPC: 0.462664 (Simulation time: 2 hr 22 min 5 sec) 

ChampSim completed all CPUs

Region of Interest Statistics

CPU 0 cummulative IPC: 0.462664 instructions: 100000003 cycles: 216139576
LLC TOTAL     ACCESS:    3283379  HIT:    1541955  MISS:    1741424
LLC LOAD      ACCESS:    1564130  HIT:    1349888  MISS:     214242
LLC RFO       ACCESS:       5220  HIT:       2639  MISS:       2581
LLC PREFETCH  ACCESS:    1697181  HIT:     180927  MISS:    1516254
LLC WRITEBACK ACCESS:      16848  HIT:       8501  MISS:       8347
Insertion Distribution: 
	LOAD 7515 0 0 0 0 0 0 0 0 0 0 0 0 0 38504 256622 
	RFO 0 0 0 0 0 0 0 0 0 0 0 0 0 0 843 2061 
	PREF 0 65 0 0 0 0 0 0 0 0 0 0 0 0 42223 1625170 
	WRITEBACK 0 0 0 0 0 0 0 0 0 0 0 0 0 0 0 8506 
Total Prefetch Downgrades: 1412
