
*** ChampSim Multicore Out-of-Order Simulator ***

Warmup Instructions: 10000000
Simulation Instructions: 100000000
Configuration: 2
Number of CPUs: 1
LLC sets: 2048
LLC ways: 16
Off-chip DRAM Channels: 1 Width: 64-bit Data Rate: 1600 MT/s

CPU 0 runs /datasets/cs240c-wi22-a00-public/data/Assignment2-gz/zeusmp_600B.trace.gz
CPU 0 L1D next line prefetcher
CPU 0 L2C IP-based stride prefetcher
Initialize SRRIP state
Heartbeat CPU 0 instructions: 1000000 cycles: 407346 heartbeat IPC: 2.45492 cumulative IPC: 2.45492 (Simulation time: 0 hr 2 min 30 sec) 
Heartbeat CPU 0 instructions: 2000001 cycles: 814284 heartbeat IPC: 2.45738 cumulative IPC: 2.45615 (Simulation time: 0 hr 4 min 50 sec) 
Heartbeat CPU 0 instructions: 3000000 cycles: 1221753 heartbeat IPC: 2.45417 cumulative IPC: 2.45549 (Simulation time: 0 hr 7 min 6 sec) 
Heartbeat CPU 0 instructions: 4000000 cycles: 1629404 heartbeat IPC: 2.45308 cumulative IPC: 2.45489 (Simulation time: 0 hr 9 min 7 sec) 
Heartbeat CPU 0 instructions: 5000001 cycles: 2036967 heartbeat IPC: 2.45361 cumulative IPC: 2.45463 (Simulation time: 0 hr 11 min 17 sec) 
Heartbeat CPU 0 instructions: 6000000 cycles: 2444291 heartbeat IPC: 2.45505 cumulative IPC: 2.4547 (Simulation time: 0 hr 13 min 26 sec) 
Heartbeat CPU 0 instructions: 7000000 cycles: 2851775 heartbeat IPC: 2.45408 cumulative IPC: 2.45461 (Simulation time: 0 hr 15 min 32 sec) 
Heartbeat CPU 0 instructions: 8000000 cycles: 3259377 heartbeat IPC: 2.45337 cumulative IPC: 2.45446 (Simulation time: 0 hr 17 min 42 sec) 
Heartbeat CPU 0 instructions: 9000003 cycles: 3666450 heartbeat IPC: 2.45657 cumulative IPC: 2.45469 (Simulation time: 0 hr 19 min 40 sec) 
Heartbeat CPU 0 instructions: 10000001 cycles: 4073952 heartbeat IPC: 2.45397 cumulative IPC: 2.45462 (Simulation time: 0 hr 21 min 51 sec) 

Warmup complete CPU 0 instructions: 10000001 cycles: 4073952 (Simulation time: 0 hr 21 min 51 sec) 

Heartbeat CPU 0 instructions: 11000000 cycles: 4748303 heartbeat IPC: 1.48291 cumulative IPC: 1.48291 (Simulation time: 0 hr 24 min 13 sec) 
Heartbeat CPU 0 instructions: 12000000 cycles: 5421594 heartbeat IPC: 1.48524 cumulative IPC: 1.48407 (Simulation time: 0 hr 26 min 39 sec) 
Heartbeat CPU 0 instructions: 13000001 cycles: 6095492 heartbeat IPC: 1.48391 cumulative IPC: 1.48402 (Simulation time: 0 hr 29 min 1 sec) 
Heartbeat CPU 0 instructions: 14000001 cycles: 6769669 heartbeat IPC: 1.48329 cumulative IPC: 1.48384 (Simulation time: 0 hr 31 min 15 sec) 
Heartbeat CPU 0 instructions: 15000003 cycles: 7445103 heartbeat IPC: 1.48053 cumulative IPC: 1.48317 (Simulation time: 0 hr 33 min 34 sec) 
Heartbeat CPU 0 instructions: 16000000 cycles: 8168210 heartbeat IPC: 1.38292 cumulative IPC: 1.46547 (Simulation time: 0 hr 35 min 51 sec) 
Heartbeat CPU 0 instructions: 17000001 cycles: 8952220 heartbeat IPC: 1.2755 cumulative IPC: 1.43494 (Simulation time: 0 hr 38 min 4 sec) 
Heartbeat CPU 0 instructions: 18000003 cycles: 9732385 heartbeat IPC: 1.28178 cumulative IPC: 1.41382 (Simulation time: 0 hr 40 min 18 sec) 
Heartbeat CPU 0 instructions: 19000000 cycles: 10508763 heartbeat IPC: 1.28803 cumulative IPC: 1.39864 (Simulation time: 0 hr 42 min 33 sec) 
Heartbeat CPU 0 instructions: 20000000 cycles: 11280973 heartbeat IPC: 1.29498 cumulative IPC: 1.38754 (Simulation time: 0 hr 45 min 3 sec) 
Heartbeat CPU 0 instructions: 21000002 cycles: 12059479 heartbeat IPC: 1.28451 cumulative IPC: 1.37749 (Simulation time: 0 hr 47 min 22 sec) 
Heartbeat CPU 0 instructions: 22000000 cycles: 12832026 heartbeat IPC: 1.29442 cumulative IPC: 1.37016 (Simulation time: 0 hr 49 min 41 sec) 
Heartbeat CPU 0 instructions: 23000000 cycles: 13606382 heartbeat IPC: 1.2914 cumulative IPC: 1.36377 (Simulation time: 0 hr 51 min 56 sec) 
Heartbeat CPU 0 instructions: 24000000 cycles: 14382963 heartbeat IPC: 1.2877 cumulative IPC: 1.35804 (Simulation time: 0 hr 54 min 5 sec) 
Heartbeat CPU 0 instructions: 25000000 cycles: 15155271 heartbeat IPC: 1.29482 cumulative IPC: 1.35363 (Simulation time: 0 hr 56 min 15 sec) 
Heartbeat CPU 0 instructions: 26000000 cycles: 15927473 heartbeat IPC: 1.295 cumulative IPC: 1.34981 (Simulation time: 0 hr 58 min 35 sec) 
Heartbeat CPU 0 instructions: 27000003 cycles: 16703028 heartbeat IPC: 1.2894 cumulative IPC: 1.3461 (Simulation time: 1 hr 0 min 48 sec) 
Heartbeat CPU 0 instructions: 28000000 cycles: 17487407 heartbeat IPC: 1.27489 cumulative IPC: 1.34194 (Simulation time: 1 hr 2 min 59 sec) 
Heartbeat CPU 0 instructions: 29000000 cycles: 18262927 heartbeat IPC: 1.28946 cumulative IPC: 1.33907 (Simulation time: 1 hr 5 min 5 sec) 
Heartbeat CPU 0 instructions: 30000003 cycles: 19044726 heartbeat IPC: 1.2791 cumulative IPC: 1.33594 (Simulation time: 1 hr 7 min 22 sec) 
Heartbeat CPU 0 instructions: 31000002 cycles: 19832582 heartbeat IPC: 1.26927 cumulative IPC: 1.3326 (Simulation time: 1 hr 9 min 35 sec) 
Heartbeat CPU 0 instructions: 32000000 cycles: 20611937 heartbeat IPC: 1.28311 cumulative IPC: 1.33027 (Simulation time: 1 hr 11 min 52 sec) 
Heartbeat CPU 0 instructions: 33000001 cycles: 21397984 heartbeat IPC: 1.27219 cumulative IPC: 1.32764 (Simulation time: 1 hr 14 min 13 sec) 
Heartbeat CPU 0 instructions: 34000000 cycles: 22179205 heartbeat IPC: 1.28005 cumulative IPC: 1.32558 (Simulation time: 1 hr 16 min 23 sec) 
Heartbeat CPU 0 instructions: 35000000 cycles: 22960149 heartbeat IPC: 1.2805 cumulative IPC: 1.32372 (Simulation time: 1 hr 18 min 43 sec) 
Heartbeat CPU 0 instructions: 36000000 cycles: 23738403 heartbeat IPC: 1.28493 cumulative IPC: 1.32218 (Simulation time: 1 hr 20 min 53 sec) 
Heartbeat CPU 0 instructions: 37000001 cycles: 24522637 heartbeat IPC: 1.27513 cumulative IPC: 1.32038 (Simulation time: 1 hr 23 min 13 sec) 
Heartbeat CPU 0 instructions: 38000001 cycles: 25311167 heartbeat IPC: 1.26818 cumulative IPC: 1.31844 (Simulation time: 1 hr 25 min 21 sec) 
Heartbeat CPU 0 instructions: 39000002 cycles: 26090480 heartbeat IPC: 1.28318 cumulative IPC: 1.31719 (Simulation time: 1 hr 27 min 36 sec) 
Heartbeat CPU 0 instructions: 40000000 cycles: 26870170 heartbeat IPC: 1.28256 cumulative IPC: 1.31601 (Simulation time: 1 hr 29 min 47 sec) 
Heartbeat CPU 0 instructions: 41000002 cycles: 27648300 heartbeat IPC: 1.28513 cumulative IPC: 1.31499 (Simulation time: 1 hr 32 min 2 sec) 
Heartbeat CPU 0 instructions: 42000000 cycles: 28429276 heartbeat IPC: 1.28045 cumulative IPC: 1.31388 (Simulation time: 1 hr 34 min 24 sec) 
Heartbeat CPU 0 instructions: 43000002 cycles: 29215284 heartbeat IPC: 1.27225 cumulative IPC: 1.31258 (Simulation time: 1 hr 36 min 26 sec) 
Heartbeat CPU 0 instructions: 44000000 cycles: 29995077 heartbeat IPC: 1.28239 cumulative IPC: 1.31167 (Simulation time: 1 hr 38 min 28 sec) 
Heartbeat CPU 0 instructions: 45000003 cycles: 30770308 heartbeat IPC: 1.28994 cumulative IPC: 1.31104 (Simulation time: 1 hr 40 min 35 sec) 
Heartbeat CPU 0 instructions: 46000000 cycles: 31547666 heartbeat IPC: 1.2864 cumulative IPC: 1.31034 (Simulation time: 1 hr 42 min 53 sec) 
Heartbeat CPU 0 instructions: 47000001 cycles: 32333301 heartbeat IPC: 1.27286 cumulative IPC: 1.3093 (Simulation time: 1 hr 45 min 10 sec) 
Heartbeat CPU 0 instructions: 48000000 cycles: 33115398 heartbeat IPC: 1.27861 cumulative IPC: 1.30847 (Simulation time: 1 hr 47 min 28 sec) 
Heartbeat CPU 0 instructions: 49000000 cycles: 33896364 heartbeat IPC: 1.28047 cumulative IPC: 1.30774 (Simulation time: 1 hr 49 min 46 sec) 
Heartbeat CPU 0 instructions: 50000000 cycles: 34674433 heartbeat IPC: 1.28523 cumulative IPC: 1.30717 (Simulation time: 1 hr 52 min 4 sec) 
Heartbeat CPU 0 instructions: 51000001 cycles: 35457110 heartbeat IPC: 1.27767 cumulative IPC: 1.30643 (Simulation time: 1 hr 54 min 31 sec) 
Heartbeat CPU 0 instructions: 52000000 cycles: 36230398 heartbeat IPC: 1.29318 cumulative IPC: 1.30611 (Simulation time: 1 hr 56 min 54 sec) 
Heartbeat CPU 0 instructions: 53000001 cycles: 37014703 heartbeat IPC: 1.27502 cumulative IPC: 1.30537 (Simulation time: 1 hr 59 min 18 sec) 
Heartbeat CPU 0 instructions: 54000000 cycles: 37796664 heartbeat IPC: 1.27883 cumulative IPC: 1.30476 (Simulation time: 2 hr 1 min 23 sec) 
Heartbeat CPU 0 instructions: 55000001 cycles: 38573656 heartbeat IPC: 1.28702 cumulative IPC: 1.30436 (Simulation time: 2 hr 3 min 45 sec) 
Heartbeat CPU 0 instructions: 56000000 cycles: 39349240 heartbeat IPC: 1.28935 cumulative IPC: 1.30403 (Simulation time: 2 hr 6 min 2 sec) 
Heartbeat CPU 0 instructions: 57000003 cycles: 40138865 heartbeat IPC: 1.26643 cumulative IPC: 1.30321 (Simulation time: 2 hr 8 min 24 sec) 
Heartbeat CPU 0 instructions: 58000001 cycles: 40910932 heartbeat IPC: 1.29522 cumulative IPC: 1.30304 (Simulation time: 2 hr 10 min 28 sec) 
Heartbeat CPU 0 instructions: 59000000 cycles: 41690287 heartbeat IPC: 1.28311 cumulative IPC: 1.30263 (Simulation time: 2 hr 12 min 36 sec) 
Heartbeat CPU 0 instructions: 60000000 cycles: 42465153 heartbeat IPC: 1.29055 cumulative IPC: 1.30238 (Simulation time: 2 hr 14 min 57 sec) 
Heartbeat CPU 0 instructions: 61000003 cycles: 43245783 heartbeat IPC: 1.28102 cumulative IPC: 1.30196 (Simulation time: 2 hr 17 min 17 sec) 
Heartbeat CPU 0 instructions: 62000001 cycles: 44028514 heartbeat IPC: 1.27758 cumulative IPC: 1.30148 (Simulation time: 2 hr 19 min 48 sec) 
Heartbeat CPU 0 instructions: 63000000 cycles: 44803706 heartbeat IPC: 1.29 cumulative IPC: 1.30126 (Simulation time: 2 hr 22 min 4 sec) 
Heartbeat CPU 0 instructions: 64000000 cycles: 45579824 heartbeat IPC: 1.28846 cumulative IPC: 1.30102 (Simulation time: 2 hr 24 min 25 sec) 
Heartbeat CPU 0 instructions: 65000001 cycles: 46368676 heartbeat IPC: 1.26767 cumulative IPC: 1.3004 (Simulation time: 2 hr 26 min 39 sec) 
Heartbeat CPU 0 instructions: 66000000 cycles: 47155731 heartbeat IPC: 1.27056 cumulative IPC: 1.29985 (Simulation time: 2 hr 28 min 56 sec) 
Heartbeat CPU 0 instructions: 67000001 cycles: 47941268 heartbeat IPC: 1.27302 cumulative IPC: 1.29937 (Simulation time: 2 hr 31 min 14 sec) 
Heartbeat CPU 0 instructions: 68000000 cycles: 48718854 heartbeat IPC: 1.28603 cumulative IPC: 1.29914 (Simulation time: 2 hr 33 min 38 sec) 
Heartbeat CPU 0 instructions: 69000002 cycles: 49506815 heartbeat IPC: 1.2691 cumulative IPC: 1.29862 (Simulation time: 2 hr 35 min 58 sec) 
Heartbeat CPU 0 instructions: 70000000 cycles: 50286206 heartbeat IPC: 1.28305 cumulative IPC: 1.29836 (Simulation time: 2 hr 38 min 20 sec) 
Heartbeat CPU 0 instructions: 71000001 cycles: 51072257 heartbeat IPC: 1.27218 cumulative IPC: 1.29792 (Simulation time: 2 hr 40 min 55 sec) 
Heartbeat CPU 0 instructions: 72000000 cycles: 51856330 heartbeat IPC: 1.27539 cumulative IPC: 1.29755 (Simulation time: 2 hr 43 min 39 sec) 
Heartbeat CPU 0 instructions: 73000003 cycles: 52632658 heartbeat IPC: 1.28812 cumulative IPC: 1.2974 (Simulation time: 2 hr 46 min 19 sec) 
Heartbeat CPU 0 instructions: 74000002 cycles: 53412021 heartbeat IPC: 1.2831 cumulative IPC: 1.29717 (Simulation time: 2 hr 48 min 47 sec) 
Heartbeat CPU 0 instructions: 75000003 cycles: 54193081 heartbeat IPC: 1.28031 cumulative IPC: 1.29691 (Simulation time: 2 hr 51 min 21 sec) 
Heartbeat CPU 0 instructions: 76000000 cycles: 54978770 heartbeat IPC: 1.27276 cumulative IPC: 1.29654 (Simulation time: 2 hr 53 min 57 sec) 
Heartbeat CPU 0 instructions: 77000000 cycles: 55756572 heartbeat IPC: 1.28567 cumulative IPC: 1.29637 (Simulation time: 2 hr 56 min 44 sec) 
Heartbeat CPU 0 instructions: 78000003 cycles: 56538426 heartbeat IPC: 1.27902 cumulative IPC: 1.29612 (Simulation time: 2 hr 59 min 25 sec) 
Heartbeat CPU 0 instructions: 79000000 cycles: 57319197 heartbeat IPC: 1.28078 cumulative IPC: 1.29589 (Simulation time: 3 hr 2 min 2 sec) 
Heartbeat CPU 0 instructions: 80000000 cycles: 58103521 heartbeat IPC: 1.27498 cumulative IPC: 1.29559 (Simulation time: 3 hr 4 min 28 sec) 
Heartbeat CPU 0 instructions: 81000002 cycles: 58877915 heartbeat IPC: 1.29133 cumulative IPC: 1.29553 (Simulation time: 3 hr 7 min 13 sec) 
Heartbeat CPU 0 instructions: 82000002 cycles: 59661694 heartbeat IPC: 1.27587 cumulative IPC: 1.29525 (Simulation time: 3 hr 10 min 4 sec) 
Heartbeat CPU 0 instructions: 83000001 cycles: 60439202 heartbeat IPC: 1.28616 cumulative IPC: 1.29512 (Simulation time: 3 hr 12 min 45 sec) 
Heartbeat CPU 0 instructions: 84000000 cycles: 61222589 heartbeat IPC: 1.27651 cumulative IPC: 1.29487 (Simulation time: 3 hr 15 min 11 sec) 
Heartbeat CPU 0 instructions: 85000002 cycles: 62008376 heartbeat IPC: 1.27261 cumulative IPC: 1.29457 (Simulation time: 3 hr 17 min 45 sec) 
Heartbeat CPU 0 instructions: 86000002 cycles: 62785522 heartbeat IPC: 1.28676 cumulative IPC: 1.29446 (Simulation time: 3 hr 20 min 19 sec) 
Heartbeat CPU 0 instructions: 87000000 cycles: 63567568 heartbeat IPC: 1.27869 cumulative IPC: 1.29426 (Simulation time: 3 hr 22 min 55 sec) 
Heartbeat CPU 0 instructions: 88000000 cycles: 64355151 heartbeat IPC: 1.26971 cumulative IPC: 1.29394 (Simulation time: 3 hr 25 min 45 sec) 
Heartbeat CPU 0 instructions: 89000002 cycles: 65132982 heartbeat IPC: 1.28563 cumulative IPC: 1.29383 (Simulation time: 3 hr 28 min 26 sec) 
Heartbeat CPU 0 instructions: 90000002 cycles: 65907414 heartbeat IPC: 1.29127 cumulative IPC: 1.2938 (Simulation time: 3 hr 31 min 3 sec) 
Heartbeat CPU 0 instructions: 91000001 cycles: 66687672 heartbeat IPC: 1.28163 cumulative IPC: 1.29365 (Simulation time: 3 hr 33 min 49 sec) 
Heartbeat CPU 0 instructions: 92000000 cycles: 67475737 heartbeat IPC: 1.26893 cumulative IPC: 1.29334 (Simulation time: 3 hr 36 min 23 sec) 
Heartbeat CPU 0 instructions: 93000000 cycles: 68248577 heartbeat IPC: 1.29393 cumulative IPC: 1.29335 (Simulation time: 3 hr 38 min 57 sec) 
Heartbeat CPU 0 instructions: 94000002 cycles: 69027042 heartbeat IPC: 1.28458 cumulative IPC: 1.29324 (Simulation time: 3 hr 41 min 31 sec) 
Heartbeat CPU 0 instructions: 95000001 cycles: 69808663 heartbeat IPC: 1.27939 cumulative IPC: 1.29308 (Simulation time: 3 hr 44 min 4 sec) 
Heartbeat CPU 0 instructions: 96000000 cycles: 70589552 heartbeat IPC: 1.28059 cumulative IPC: 1.29293 (Simulation time: 3 hr 46 min 33 sec) 
Heartbeat CPU 0 instructions: 97000003 cycles: 71362236 heartbeat IPC: 1.29419 cumulative IPC: 1.29294 (Simulation time: 3 hr 49 min 16 sec) 
Heartbeat CPU 0 instructions: 98000002 cycles: 72139751 heartbeat IPC: 1.28615 cumulative IPC: 1.29287 (Simulation time: 3 hr 51 min 51 sec) 
Heartbeat CPU 0 instructions: 99000000 cycles: 72928975 heartbeat IPC: 1.26706 cumulative IPC: 1.29257 (Simulation time: 3 hr 54 min 31 sec) 
Heartbeat CPU 0 instructions: 100000000 cycles: 73706323 heartbeat IPC: 1.28643 cumulative IPC: 1.2925 (Simulation time: 3 hr 57 min 3 sec) 
Heartbeat CPU 0 instructions: 101000002 cycles: 74479938 heartbeat IPC: 1.29264 cumulative IPC: 1.2925 (Simulation time: 3 hr 59 min 31 sec) 
Heartbeat CPU 0 instructions: 102000002 cycles: 75264543 heartbeat IPC: 1.27453 cumulative IPC: 1.29231 (Simulation time: 4 hr 1 min 49 sec) 
Heartbeat CPU 0 instructions: 103000001 cycles: 76046184 heartbeat IPC: 1.27936 cumulative IPC: 1.29217 (Simulation time: 4 hr 4 min 15 sec) 
Heartbeat CPU 0 instructions: 104000000 cycles: 76829738 heartbeat IPC: 1.27623 cumulative IPC: 1.29199 (Simulation time: 4 hr 6 min 47 sec) 
Heartbeat CPU 0 instructions: 105000001 cycles: 77610170 heartbeat IPC: 1.28134 cumulative IPC: 1.29188 (Simulation time: 4 hr 9 min 21 sec) 
Heartbeat CPU 0 instructions: 106000000 cycles: 78391796 heartbeat IPC: 1.27938 cumulative IPC: 1.29175 (Simulation time: 4 hr 11 min 38 sec) 
Heartbeat CPU 0 instructions: 107000000 cycles: 79173733 heartbeat IPC: 1.27888 cumulative IPC: 1.29161 (Simulation time: 4 hr 13 min 58 sec) 
Heartbeat CPU 0 instructions: 108000000 cycles: 79953914 heartbeat IPC: 1.28175 cumulative IPC: 1.29151 (Simulation time: 4 hr 16 min 13 sec) 
Heartbeat CPU 0 instructions: 109000000 cycles: 80740889 heartbeat IPC: 1.27069 cumulative IPC: 1.2913 (Simulation time: 4 hr 18 min 29 sec) 
Heartbeat CPU 0 instructions: 110000002 cycles: 81524294 heartbeat IPC: 1.27648 cumulative IPC: 1.29115 (Simulation time: 4 hr 20 min 37 sec) 
Finished CPU 0 instructions: 100000001 cycles: 77450342 cummulative IPC: 1.29115 (Simulation time: 4 hr 20 min 37 sec) 

ChampSim completed all CPUs

Region of Interest Statistics

CPU 0 cummulative IPC: 1.29115 instructions: 100000001 cycles: 77450342
LLC TOTAL     ACCESS:     382569  HIT:      20091  MISS:     362478
LLC LOAD      ACCESS:      27963  HIT:        280  MISS:      27683
LLC RFO       ACCESS:       3434  HIT:          3  MISS:       3431
LLC PREFETCH  ACCESS:     287935  HIT:       3198  MISS:     284737
LLC WRITEBACK ACCESS:      63237  HIT:      16610  MISS:      46627
Insertion Distribution: 
	LOAD 0 0 9391 19024 
	RFO 0 0 5830 3596 
	PREF 0 0 67135 243576 
	WRITEBACK 0 0 0 47178 
Total Prefetch Downgrades: 146
