
*** ChampSim Multicore Out-of-Order Simulator ***

Warmup Instructions: 10000000
Simulation Instructions: 100000000
Configuration: 2
Number of CPUs: 1
LLC sets: 2048
LLC ways: 16
Off-chip DRAM Channels: 1 Width: 64-bit Data Rate: 1600 MT/s

CPU 0 runs /datasets/cs240c-wi22-a00-public/data/Assignment2-gz/lbm_94B.trace.gz
CPU 0 L1D next line prefetcher
CPU 0 L2C IP-based stride prefetcher
Initialize SRRIP state
Heartbeat CPU 0 instructions: 1000000 cycles: 422068 heartbeat IPC: 2.36929 cumulative IPC: 2.36929 (Simulation time: 0 hr 2 min 46 sec) 
Heartbeat CPU 0 instructions: 2000000 cycles: 812399 heartbeat IPC: 2.56193 cumulative IPC: 2.46184 (Simulation time: 0 hr 5 min 29 sec) 
Heartbeat CPU 0 instructions: 3000000 cycles: 1211539 heartbeat IPC: 2.50539 cumulative IPC: 2.47619 (Simulation time: 0 hr 8 min 3 sec) 
Heartbeat CPU 0 instructions: 4000000 cycles: 1631526 heartbeat IPC: 2.38103 cumulative IPC: 2.45169 (Simulation time: 0 hr 10 min 46 sec) 
Heartbeat CPU 0 instructions: 5000001 cycles: 2021766 heartbeat IPC: 2.56253 cumulative IPC: 2.47309 (Simulation time: 0 hr 13 min 12 sec) 
Heartbeat CPU 0 instructions: 6000000 cycles: 2422436 heartbeat IPC: 2.49582 cumulative IPC: 2.47685 (Simulation time: 0 hr 15 min 52 sec) 
Heartbeat CPU 0 instructions: 7000001 cycles: 2840572 heartbeat IPC: 2.39157 cumulative IPC: 2.46429 (Simulation time: 0 hr 18 min 23 sec) 
Heartbeat CPU 0 instructions: 8000000 cycles: 3230808 heartbeat IPC: 2.56255 cumulative IPC: 2.47616 (Simulation time: 0 hr 20 min 59 sec) 
Heartbeat CPU 0 instructions: 9000003 cycles: 3631842 heartbeat IPC: 2.49356 cumulative IPC: 2.47808 (Simulation time: 0 hr 23 min 30 sec) 
Heartbeat CPU 0 instructions: 10000000 cycles: 4048422 heartbeat IPC: 2.40049 cumulative IPC: 2.4701 (Simulation time: 0 hr 26 min 6 sec) 

Warmup complete CPU 0 instructions: 10000004 cycles: 4048423 (Simulation time: 0 hr 26 min 6 sec) 

Heartbeat CPU 0 instructions: 11000001 cycles: 5604142 heartbeat IPC: 0.64279 cumulative IPC: 0.642788 (Simulation time: 0 hr 29 min 14 sec) 
Heartbeat CPU 0 instructions: 12000000 cycles: 7237069 heartbeat IPC: 0.612397 cumulative IPC: 0.627224 (Simulation time: 0 hr 31 min 57 sec) 
Heartbeat CPU 0 instructions: 13000000 cycles: 9016174 heartbeat IPC: 0.56208 cumulative IPC: 0.603894 (Simulation time: 0 hr 34 min 59 sec) 
Heartbeat CPU 0 instructions: 14000000 cycles: 10521246 heartbeat IPC: 0.66442 cumulative IPC: 0.617968 (Simulation time: 0 hr 37 min 58 sec) 
Heartbeat CPU 0 instructions: 15000003 cycles: 12147818 heartbeat IPC: 0.614792 cumulative IPC: 0.61733 (Simulation time: 0 hr 40 min 40 sec) 
Heartbeat CPU 0 instructions: 16000000 cycles: 13894352 heartbeat IPC: 0.572561 cumulative IPC: 0.609389 (Simulation time: 0 hr 43 min 29 sec) 
Heartbeat CPU 0 instructions: 17000001 cycles: 15388237 heartbeat IPC: 0.669396 cumulative IPC: 0.617294 (Simulation time: 0 hr 46 min 24 sec) 
Heartbeat CPU 0 instructions: 18000001 cycles: 17028552 heartbeat IPC: 0.609639 cumulative IPC: 0.616326 (Simulation time: 0 hr 49 min 7 sec) 
Heartbeat CPU 0 instructions: 19000000 cycles: 18800889 heartbeat IPC: 0.564226 cumulative IPC: 0.610067 (Simulation time: 0 hr 52 min 13 sec) 
Heartbeat CPU 0 instructions: 20000000 cycles: 20311190 heartbeat IPC: 0.66212 cumulative IPC: 0.614901 (Simulation time: 0 hr 55 min 7 sec) 
Heartbeat CPU 0 instructions: 21000001 cycles: 21884499 heartbeat IPC: 0.635604 cumulative IPC: 0.616727 (Simulation time: 0 hr 57 min 39 sec) 
Heartbeat CPU 0 instructions: 22000000 cycles: 23616597 heartbeat IPC: 0.577334 cumulative IPC: 0.61324 (Simulation time: 1 hr 0 min 31 sec) 
Heartbeat CPU 0 instructions: 23000000 cycles: 25121431 heartbeat IPC: 0.664525 cumulative IPC: 0.616903 (Simulation time: 1 hr 3 min 13 sec) 
Heartbeat CPU 0 instructions: 24000000 cycles: 26677078 heartbeat IPC: 0.642819 cumulative IPC: 0.618684 (Simulation time: 1 hr 5 min 56 sec) 
Heartbeat CPU 0 instructions: 25000000 cycles: 28407158 heartbeat IPC: 0.578008 cumulative IPC: 0.615795 (Simulation time: 1 hr 8 min 48 sec) 
Heartbeat CPU 0 instructions: 26000000 cycles: 29926930 heartbeat IPC: 0.657993 cumulative IPC: 0.618274 (Simulation time: 1 hr 11 min 30 sec) 
Heartbeat CPU 0 instructions: 27000002 cycles: 31501763 heartbeat IPC: 0.634989 cumulative IPC: 0.619232 (Simulation time: 1 hr 14 min 12 sec) 
Heartbeat CPU 0 instructions: 28000000 cycles: 33253278 heartbeat IPC: 0.570933 cumulative IPC: 0.616336 (Simulation time: 1 hr 16 min 58 sec) 
Heartbeat CPU 0 instructions: 29000000 cycles: 34757732 heartbeat IPC: 0.664693 cumulative IPC: 0.618705 (Simulation time: 1 hr 19 min 42 sec) 
Heartbeat CPU 0 instructions: 30000000 cycles: 36342327 heartbeat IPC: 0.631076 cumulative IPC: 0.619312 (Simulation time: 1 hr 22 min 34 sec) 
Heartbeat CPU 0 instructions: 31000001 cycles: 38029502 heartbeat IPC: 0.592707 cumulative IPC: 0.617991 (Simulation time: 1 hr 25 min 33 sec) 
Heartbeat CPU 0 instructions: 32000000 cycles: 39504852 heartbeat IPC: 0.677805 cumulative IPC: 0.62048 (Simulation time: 1 hr 28 min 14 sec) 
Heartbeat CPU 0 instructions: 33000000 cycles: 41032007 heartbeat IPC: 0.654812 cumulative IPC: 0.621897 (Simulation time: 1 hr 31 min 9 sec) 
Heartbeat CPU 0 instructions: 34000003 cycles: 42700755 heartbeat IPC: 0.599253 cumulative IPC: 0.62092 (Simulation time: 1 hr 33 min 58 sec) 
Heartbeat CPU 0 instructions: 35000003 cycles: 44200330 heartbeat IPC: 0.666856 cumulative IPC: 0.622635 (Simulation time: 1 hr 36 min 42 sec) 
Heartbeat CPU 0 instructions: 36000000 cycles: 45743505 heartbeat IPC: 0.648013 cumulative IPC: 0.623575 (Simulation time: 1 hr 39 min 24 sec) 
Heartbeat CPU 0 instructions: 37000003 cycles: 47356895 heartbeat IPC: 0.619815 cumulative IPC: 0.623435 (Simulation time: 1 hr 42 min 0 sec) 
Heartbeat CPU 0 instructions: 38000001 cycles: 48872929 heartbeat IPC: 0.659615 cumulative IPC: 0.624658 (Simulation time: 1 hr 44 min 35 sec) 
Heartbeat CPU 0 instructions: 39000002 cycles: 50374541 heartbeat IPC: 0.665952 cumulative IPC: 0.625997 (Simulation time: 1 hr 47 min 23 sec) 
Heartbeat CPU 0 instructions: 40000000 cycles: 52032712 heartbeat IPC: 0.603073 cumulative IPC: 0.625205 (Simulation time: 1 hr 50 min 24 sec) 
Heartbeat CPU 0 instructions: 41000003 cycles: 53592471 heartbeat IPC: 0.641127 cumulative IPC: 0.625706 (Simulation time: 1 hr 53 min 2 sec) 
Heartbeat CPU 0 instructions: 42000000 cycles: 55084275 heartbeat IPC: 0.670327 cumulative IPC: 0.62701 (Simulation time: 1 hr 55 min 49 sec) 
Heartbeat CPU 0 instructions: 43000001 cycles: 56636637 heartbeat IPC: 0.64418 cumulative IPC: 0.627517 (Simulation time: 1 hr 58 min 38 sec) 
Heartbeat CPU 0 instructions: 44000000 cycles: 58219829 heartbeat IPC: 0.631635 cumulative IPC: 0.627637 (Simulation time: 2 hr 1 min 25 sec) 
Heartbeat CPU 0 instructions: 45000002 cycles: 59720968 heartbeat IPC: 0.666162 cumulative IPC: 0.628676 (Simulation time: 2 hr 4 min 25 sec) 
Heartbeat CPU 0 instructions: 46000003 cycles: 61247681 heartbeat IPC: 0.655003 cumulative IPC: 0.629379 (Simulation time: 2 hr 7 min 12 sec) 
Heartbeat CPU 0 instructions: 47000001 cycles: 62803098 heartbeat IPC: 0.642913 cumulative IPC: 0.629737 (Simulation time: 2 hr 10 min 5 sec) 
Heartbeat CPU 0 instructions: 48000000 cycles: 64288386 heartbeat IPC: 0.673269 cumulative IPC: 0.63081 (Simulation time: 2 hr 13 min 8 sec) 
Heartbeat CPU 0 instructions: 49000000 cycles: 65783970 heartbeat IPC: 0.668635 cumulative IPC: 0.631727 (Simulation time: 2 hr 16 min 10 sec) 
Heartbeat CPU 0 instructions: 50000003 cycles: 67318021 heartbeat IPC: 0.651871 cumulative IPC: 0.632215 (Simulation time: 2 hr 19 min 5 sec) 
Heartbeat CPU 0 instructions: 51000003 cycles: 68810095 heartbeat IPC: 0.670208 cumulative IPC: 0.63309 (Simulation time: 2 hr 21 min 52 sec) 
Heartbeat CPU 0 instructions: 52000000 cycles: 70302433 heartbeat IPC: 0.670087 cumulative IPC: 0.633924 (Simulation time: 2 hr 24 min 49 sec) 
Heartbeat CPU 0 instructions: 53000001 cycles: 71830916 heartbeat IPC: 0.654244 cumulative IPC: 0.634382 (Simulation time: 2 hr 27 min 35 sec) 
Heartbeat CPU 0 instructions: 54000000 cycles: 73286566 heartbeat IPC: 0.686978 cumulative IPC: 0.635488 (Simulation time: 2 hr 30 min 19 sec) 
Heartbeat CPU 0 instructions: 55000003 cycles: 74801662 heartbeat IPC: 0.660026 cumulative IPC: 0.636013 (Simulation time: 2 hr 33 min 27 sec) 
Heartbeat CPU 0 instructions: 56000000 cycles: 76338533 heartbeat IPC: 0.650671 cumulative IPC: 0.636325 (Simulation time: 2 hr 36 min 11 sec) 
Heartbeat CPU 0 instructions: 57000003 cycles: 77829783 heartbeat IPC: 0.67058 cumulative IPC: 0.637017 (Simulation time: 2 hr 38 min 53 sec) 
Heartbeat CPU 0 instructions: 58000003 cycles: 79328991 heartbeat IPC: 0.667019 cumulative IPC: 0.637615 (Simulation time: 2 hr 42 min 3 sec) 
Heartbeat CPU 0 instructions: 59000002 cycles: 80877011 heartbeat IPC: 0.645986 cumulative IPC: 0.637783 (Simulation time: 2 hr 44 min 59 sec) 
Heartbeat CPU 0 instructions: 60000000 cycles: 82361037 heartbeat IPC: 0.673841 cumulative IPC: 0.638467 (Simulation time: 2 hr 47 min 50 sec) 
Heartbeat CPU 0 instructions: 61000000 cycles: 83833309 heartbeat IPC: 0.679222 cumulative IPC: 0.639219 (Simulation time: 2 hr 50 min 56 sec) 
Heartbeat CPU 0 instructions: 62000000 cycles: 85336113 heartbeat IPC: 0.665423 cumulative IPC: 0.639703 (Simulation time: 2 hr 54 min 1 sec) 
Heartbeat CPU 0 instructions: 63000001 cycles: 86897037 heartbeat IPC: 0.640647 cumulative IPC: 0.639721 (Simulation time: 2 hr 57 min 5 sec) 
Heartbeat CPU 0 instructions: 64000000 cycles: 88372975 heartbeat IPC: 0.677535 cumulative IPC: 0.640383 (Simulation time: 2 hr 59 min 58 sec) 
Heartbeat CPU 0 instructions: 65000003 cycles: 89842701 heartbeat IPC: 0.680401 cumulative IPC: 0.641068 (Simulation time: 3 hr 2 min 36 sec) 
Heartbeat CPU 0 instructions: 66000002 cycles: 91356898 heartbeat IPC: 0.660415 cumulative IPC: 0.641404 (Simulation time: 3 hr 5 min 23 sec) 
Heartbeat CPU 0 instructions: 67000002 cycles: 92847315 heartbeat IPC: 0.670953 cumulative IPC: 0.6419 (Simulation time: 3 hr 8 min 15 sec) 
Heartbeat CPU 0 instructions: 68000000 cycles: 94328683 heartbeat IPC: 0.67505 cumulative IPC: 0.642444 (Simulation time: 3 hr 11 min 4 sec) 
Heartbeat CPU 0 instructions: 69000000 cycles: 95833909 heartbeat IPC: 0.664352 cumulative IPC: 0.642803 (Simulation time: 3 hr 13 min 47 sec) 
Heartbeat CPU 0 instructions: 70000001 cycles: 97359749 heartbeat IPC: 0.655377 cumulative IPC: 0.643009 (Simulation time: 3 hr 16 min 41 sec) 
Heartbeat CPU 0 instructions: 71000001 cycles: 98870287 heartbeat IPC: 0.662016 cumulative IPC: 0.643312 (Simulation time: 3 hr 19 min 37 sec) 
Heartbeat CPU 0 instructions: 72000000 cycles: 100371680 heartbeat IPC: 0.666047 cumulative IPC: 0.643666 (Simulation time: 3 hr 22 min 9 sec) 
Heartbeat CPU 0 instructions: 73000001 cycles: 101884777 heartbeat IPC: 0.660897 cumulative IPC: 0.643932 (Simulation time: 3 hr 24 min 53 sec) 
Heartbeat CPU 0 instructions: 74000001 cycles: 103358065 heartbeat IPC: 0.678754 cumulative IPC: 0.644449 (Simulation time: 3 hr 27 min 41 sec) 
Heartbeat CPU 0 instructions: 75000000 cycles: 104862838 heartbeat IPC: 0.664551 cumulative IPC: 0.644749 (Simulation time: 3 hr 30 min 31 sec) 
Heartbeat CPU 0 instructions: 76000000 cycles: 106373694 heartbeat IPC: 0.661876 cumulative IPC: 0.645002 (Simulation time: 3 hr 33 min 26 sec) 
Heartbeat CPU 0 instructions: 77000002 cycles: 107828133 heartbeat IPC: 0.687552 cumulative IPC: 0.645598 (Simulation time: 3 hr 36 min 21 sec) 
Heartbeat CPU 0 instructions: 78000003 cycles: 109318764 heartbeat IPC: 0.670857 cumulative IPC: 0.645956 (Simulation time: 3 hr 39 min 16 sec) 
Heartbeat CPU 0 instructions: 79000000 cycles: 110834143 heartbeat IPC: 0.659899 cumulative IPC: 0.646154 (Simulation time: 3 hr 42 min 8 sec) 
Heartbeat CPU 0 instructions: 80000000 cycles: 112343872 heartbeat IPC: 0.662371 cumulative IPC: 0.64638 (Simulation time: 3 hr 45 min 3 sec) 
Heartbeat CPU 0 instructions: 81000000 cycles: 113809571 heartbeat IPC: 0.682268 cumulative IPC: 0.646859 (Simulation time: 3 hr 47 min 46 sec) 
Heartbeat CPU 0 instructions: 82000000 cycles: 115306730 heartbeat IPC: 0.667932 cumulative IPC: 0.647143 (Simulation time: 3 hr 50 min 25 sec) 
Heartbeat CPU 0 instructions: 83000003 cycles: 116798450 heartbeat IPC: 0.670369 cumulative IPC: 0.64745 (Simulation time: 3 hr 53 min 2 sec) 
Heartbeat CPU 0 instructions: 84000000 cycles: 118265955 heartbeat IPC: 0.681427 cumulative IPC: 0.647887 (Simulation time: 3 hr 55 min 44 sec) 
Heartbeat CPU 0 instructions: 85000001 cycles: 119741278 heartbeat IPC: 0.677818 cumulative IPC: 0.648268 (Simulation time: 3 hr 58 min 26 sec) 
Heartbeat CPU 0 instructions: 86000003 cycles: 121252969 heartbeat IPC: 0.661512 cumulative IPC: 0.648439 (Simulation time: 4 hr 0 min 59 sec) 
Heartbeat CPU 0 instructions: 87000000 cycles: 122732733 heartbeat IPC: 0.675781 cumulative IPC: 0.64878 (Simulation time: 4 hr 3 min 35 sec) 
Heartbeat CPU 0 instructions: 88000000 cycles: 124209998 heartbeat IPC: 0.676927 cumulative IPC: 0.649126 (Simulation time: 4 hr 6 min 13 sec) 
Heartbeat CPU 0 instructions: 89000003 cycles: 125664235 heartbeat IPC: 0.687648 cumulative IPC: 0.649587 (Simulation time: 4 hr 9 min 1 sec) 
Heartbeat CPU 0 instructions: 90000003 cycles: 127162778 heartbeat IPC: 0.667315 cumulative IPC: 0.649802 (Simulation time: 4 hr 11 min 33 sec) 
Heartbeat CPU 0 instructions: 91000002 cycles: 128640678 heartbeat IPC: 0.676635 cumulative IPC: 0.650121 (Simulation time: 4 hr 13 min 55 sec) 
Heartbeat CPU 0 instructions: 92000000 cycles: 130116873 heartbeat IPC: 0.677416 cumulative IPC: 0.65044 (Simulation time: 4 hr 16 min 18 sec) 
Heartbeat CPU 0 instructions: 93000003 cycles: 131616002 heartbeat IPC: 0.667056 cumulative IPC: 0.650636 (Simulation time: 4 hr 18 min 35 sec) 
Heartbeat CPU 0 instructions: 94000001 cycles: 133063582 heartbeat IPC: 0.690807 cumulative IPC: 0.651086 (Simulation time: 4 hr 20 min 53 sec) 
Heartbeat CPU 0 instructions: 95000001 cycles: 134522221 heartbeat IPC: 0.685571 cumulative IPC: 0.651472 (Simulation time: 4 hr 23 min 1 sec) 
Heartbeat CPU 0 instructions: 96000000 cycles: 135983669 heartbeat IPC: 0.684252 cumulative IPC: 0.651835 (Simulation time: 4 hr 25 min 5 sec) 
Heartbeat CPU 0 instructions: 97000000 cycles: 137493318 heartbeat IPC: 0.662406 cumulative IPC: 0.651954 (Simulation time: 4 hr 27 min 0 sec) 
Heartbeat CPU 0 instructions: 98000002 cycles: 138942667 heartbeat IPC: 0.689966 cumulative IPC: 0.652363 (Simulation time: 4 hr 28 min 44 sec) 
Heartbeat CPU 0 instructions: 99000001 cycles: 140404313 heartbeat IPC: 0.68416 cumulative IPC: 0.652704 (Simulation time: 4 hr 30 min 21 sec) 
Heartbeat CPU 0 instructions: 100000000 cycles: 141889029 heartbeat IPC: 0.673529 cumulative IPC: 0.652928 (Simulation time: 4 hr 31 min 58 sec) 
Heartbeat CPU 0 instructions: 101000003 cycles: 143346180 heartbeat IPC: 0.686273 cumulative IPC: 0.653277 (Simulation time: 4 hr 33 min 29 sec) 
Heartbeat CPU 0 instructions: 102000002 cycles: 144817334 heartbeat IPC: 0.679738 cumulative IPC: 0.653553 (Simulation time: 4 hr 35 min 0 sec) 
Heartbeat CPU 0 instructions: 103000000 cycles: 146331062 heartbeat IPC: 0.660619 cumulative IPC: 0.653629 (Simulation time: 4 hr 36 min 29 sec) 
Heartbeat CPU 0 instructions: 104000000 cycles: 147779653 heartbeat IPC: 0.690326 cumulative IPC: 0.653998 (Simulation time: 4 hr 37 min 55 sec) 
Heartbeat CPU 0 instructions: 105000002 cycles: 149235318 heartbeat IPC: 0.686973 cumulative IPC: 0.654329 (Simulation time: 4 hr 39 min 21 sec) 
Heartbeat CPU 0 instructions: 106000001 cycles: 150697455 heartbeat IPC: 0.68393 cumulative IPC: 0.654624 (Simulation time: 4 hr 40 min 44 sec) 
Heartbeat CPU 0 instructions: 107000000 cycles: 152191479 heartbeat IPC: 0.669333 cumulative IPC: 0.654772 (Simulation time: 4 hr 42 min 4 sec) 
Heartbeat CPU 0 instructions: 108000000 cycles: 153652763 heartbeat IPC: 0.68433 cumulative IPC: 0.655061 (Simulation time: 4 hr 43 min 21 sec) 
Heartbeat CPU 0 instructions: 109000002 cycles: 155130661 heartbeat IPC: 0.676638 cumulative IPC: 0.655272 (Simulation time: 4 hr 44 min 31 sec) 
Heartbeat CPU 0 instructions: 110000000 cycles: 156622154 heartbeat IPC: 0.670468 cumulative IPC: 0.655421 (Simulation time: 4 hr 45 min 39 sec) 
Finished CPU 0 instructions: 100000000 cycles: 152573732 cummulative IPC: 0.655421 (Simulation time: 4 hr 45 min 39 sec) 

ChampSim completed all CPUs

Region of Interest Statistics

CPU 0 cummulative IPC: 0.655421 instructions: 100000000 cycles: 152573732
LLC TOTAL     ACCESS:    5499479  HIT:    1289444  MISS:    4210035
LLC LOAD      ACCESS:     394913  HIT:      19303  MISS:     375610
LLC RFO       ACCESS:    2345794  HIT:     290071  MISS:    2055723
LLC PREFETCH  ACCESS:     412651  HIT:      24729  MISS:     387922
LLC WRITEBACK ACCESS:    2346121  HIT:     955341  MISS:    1390780
Insertion Distribution: 
	LOAD 0 0 43155 367597 
	RFO 128202 0 536099 1623065 
	PREF 0 8900 93753 335928 
	WRITEBACK 0 0 0 1529279 
Total Prefetch Downgrades: 19214
