
*** ChampSim Multicore Out-of-Order Simulator ***

Warmup Instructions: 10000000
Simulation Instructions: 100000000
Configuration: 2
Number of CPUs: 1
LLC sets: 2048
LLC ways: 16
Off-chip DRAM Channels: 1 Width: 64-bit Data Rate: 1600 MT/s

CPU 0 runs /datasets/cs240c-wi22-a00-public/data/Assignment2-gz/libquantum_1210B.trace.gz
CPU 0 L1D next line prefetcher
CPU 0 L2C IP-based stride prefetcher
Initialize SRRIP state
Heartbeat CPU 0 instructions: 1000003 cycles: 314916 heartbeat IPC: 3.17546 cumulative IPC: 3.17546 (Simulation time: 0 hr 1 min 40 sec) 
Heartbeat CPU 0 instructions: 2000000 cycles: 630170 heartbeat IPC: 3.17204 cumulative IPC: 3.17375 (Simulation time: 0 hr 3 min 32 sec) 
Heartbeat CPU 0 instructions: 3000001 cycles: 945979 heartbeat IPC: 3.16647 cumulative IPC: 3.17132 (Simulation time: 0 hr 5 min 17 sec) 
Heartbeat CPU 0 instructions: 4000000 cycles: 1260333 heartbeat IPC: 3.18112 cumulative IPC: 3.17376 (Simulation time: 0 hr 6 min 49 sec) 
Heartbeat CPU 0 instructions: 5000001 cycles: 1576818 heartbeat IPC: 3.15971 cumulative IPC: 3.17094 (Simulation time: 0 hr 8 min 31 sec) 
Heartbeat CPU 0 instructions: 6000002 cycles: 1891318 heartbeat IPC: 3.17965 cumulative IPC: 3.17239 (Simulation time: 0 hr 10 min 17 sec) 
Heartbeat CPU 0 instructions: 7000001 cycles: 2206981 heartbeat IPC: 3.16793 cumulative IPC: 3.17175 (Simulation time: 0 hr 12 min 9 sec) 
Heartbeat CPU 0 instructions: 8000000 cycles: 2522385 heartbeat IPC: 3.17053 cumulative IPC: 3.1716 (Simulation time: 0 hr 13 min 53 sec) 
Heartbeat CPU 0 instructions: 9000002 cycles: 2837144 heartbeat IPC: 3.17704 cumulative IPC: 3.1722 (Simulation time: 0 hr 15 min 42 sec) 
Heartbeat CPU 0 instructions: 10000003 cycles: 3153454 heartbeat IPC: 3.16146 cumulative IPC: 3.17113 (Simulation time: 0 hr 17 min 31 sec) 

Warmup complete CPU 0 instructions: 10000003 cycles: 3153454 (Simulation time: 0 hr 17 min 31 sec) 

Heartbeat CPU 0 instructions: 11000001 cycles: 5361814 heartbeat IPC: 0.452824 cumulative IPC: 0.452824 (Simulation time: 0 hr 20 min 7 sec) 
Heartbeat CPU 0 instructions: 12000000 cycles: 7517356 heartbeat IPC: 0.46392 cumulative IPC: 0.458305 (Simulation time: 0 hr 22 min 55 sec) 
Heartbeat CPU 0 instructions: 13000003 cycles: 10117440 heartbeat IPC: 0.384604 cumulative IPC: 0.430788 (Simulation time: 0 hr 25 min 48 sec) 
Heartbeat CPU 0 instructions: 14000001 cycles: 12692858 heartbeat IPC: 0.388286 cumulative IPC: 0.419313 (Simulation time: 0 hr 28 min 29 sec) 
Heartbeat CPU 0 instructions: 15000001 cycles: 15257635 heartbeat IPC: 0.389897 cumulative IPC: 0.41308 (Simulation time: 0 hr 31 min 11 sec) 
Heartbeat CPU 0 instructions: 16000000 cycles: 17844384 heartbeat IPC: 0.386585 cumulative IPC: 0.408415 (Simulation time: 0 hr 33 min 46 sec) 
Heartbeat CPU 0 instructions: 17000000 cycles: 20435938 heartbeat IPC: 0.385869 cumulative IPC: 0.405034 (Simulation time: 0 hr 36 min 33 sec) 
Heartbeat CPU 0 instructions: 18000000 cycles: 23042700 heartbeat IPC: 0.383618 cumulative IPC: 0.402227 (Simulation time: 0 hr 39 min 12 sec) 
Heartbeat CPU 0 instructions: 19000000 cycles: 25640406 heartbeat IPC: 0.384955 cumulative IPC: 0.400232 (Simulation time: 0 hr 41 min 58 sec) 
Heartbeat CPU 0 instructions: 20000000 cycles: 28217156 heartbeat IPC: 0.388086 cumulative IPC: 0.398983 (Simulation time: 0 hr 44 min 35 sec) 
Heartbeat CPU 0 instructions: 21000001 cycles: 30786680 heartbeat IPC: 0.389178 cumulative IPC: 0.398071 (Simulation time: 0 hr 47 min 11 sec) 
Heartbeat CPU 0 instructions: 22000003 cycles: 33358246 heartbeat IPC: 0.388869 cumulative IPC: 0.397288 (Simulation time: 0 hr 49 min 49 sec) 
Heartbeat CPU 0 instructions: 23000000 cycles: 35953225 heartbeat IPC: 0.385358 cumulative IPC: 0.396344 (Simulation time: 0 hr 52 min 35 sec) 
Heartbeat CPU 0 instructions: 24000000 cycles: 38559151 heartbeat IPC: 0.383741 cumulative IPC: 0.395416 (Simulation time: 0 hr 55 min 24 sec) 
Heartbeat CPU 0 instructions: 25000000 cycles: 41164427 heartbeat IPC: 0.383836 cumulative IPC: 0.394623 (Simulation time: 0 hr 58 min 3 sec) 
Heartbeat CPU 0 instructions: 26000000 cycles: 43767179 heartbeat IPC: 0.384209 cumulative IPC: 0.393955 (Simulation time: 1 hr 0 min 33 sec) 
Heartbeat CPU 0 instructions: 27000003 cycles: 46369702 heartbeat IPC: 0.384244 cumulative IPC: 0.393371 (Simulation time: 1 hr 3 min 13 sec) 
Heartbeat CPU 0 instructions: 28000000 cycles: 48842333 heartbeat IPC: 0.404426 cumulative IPC: 0.393969 (Simulation time: 1 hr 5 min 45 sec) 
Heartbeat CPU 0 instructions: 29000002 cycles: 50357386 heartbeat IPC: 0.660044 cumulative IPC: 0.402509 (Simulation time: 1 hr 8 min 25 sec) 
Heartbeat CPU 0 instructions: 30000001 cycles: 51847218 heartbeat IPC: 0.671216 cumulative IPC: 0.41073 (Simulation time: 1 hr 11 min 5 sec) 
Heartbeat CPU 0 instructions: 31000000 cycles: 53336900 heartbeat IPC: 0.671284 cumulative IPC: 0.418465 (Simulation time: 1 hr 13 min 50 sec) 
Heartbeat CPU 0 instructions: 32000000 cycles: 54828540 heartbeat IPC: 0.670403 cumulative IPC: 0.425737 (Simulation time: 1 hr 16 min 24 sec) 
Heartbeat CPU 0 instructions: 33000000 cycles: 56317625 heartbeat IPC: 0.671553 cumulative IPC: 0.432622 (Simulation time: 1 hr 19 min 14 sec) 
Heartbeat CPU 0 instructions: 34000002 cycles: 57809000 heartbeat IPC: 0.670524 cumulative IPC: 0.439114 (Simulation time: 1 hr 22 min 0 sec) 
Heartbeat CPU 0 instructions: 35000001 cycles: 59298752 heartbeat IPC: 0.671252 cumulative IPC: 0.445273 (Simulation time: 1 hr 24 min 36 sec) 
Heartbeat CPU 0 instructions: 36000000 cycles: 60787423 heartbeat IPC: 0.671739 cumulative IPC: 0.451123 (Simulation time: 1 hr 27 min 12 sec) 
Heartbeat CPU 0 instructions: 37000001 cycles: 62274308 heartbeat IPC: 0.672548 cumulative IPC: 0.456692 (Simulation time: 1 hr 29 min 32 sec) 
Heartbeat CPU 0 instructions: 38000002 cycles: 63757836 heartbeat IPC: 0.67407 cumulative IPC: 0.462013 (Simulation time: 1 hr 32 min 10 sec) 
Heartbeat CPU 0 instructions: 39000001 cycles: 65240599 heartbeat IPC: 0.674416 cumulative IPC: 0.467085 (Simulation time: 1 hr 34 min 40 sec) 
Heartbeat CPU 0 instructions: 40000000 cycles: 66718736 heartbeat IPC: 0.676527 cumulative IPC: 0.471956 (Simulation time: 1 hr 37 min 4 sec) 
Heartbeat CPU 0 instructions: 41000000 cycles: 68194506 heartbeat IPC: 0.677612 cumulative IPC: 0.476622 (Simulation time: 1 hr 39 min 41 sec) 
Heartbeat CPU 0 instructions: 42000000 cycles: 69668462 heartbeat IPC: 0.678446 cumulative IPC: 0.481094 (Simulation time: 1 hr 42 min 8 sec) 
Heartbeat CPU 0 instructions: 43000002 cycles: 71141431 heartbeat IPC: 0.678902 cumulative IPC: 0.48538 (Simulation time: 1 hr 44 min 50 sec) 
Heartbeat CPU 0 instructions: 44000000 cycles: 72614095 heartbeat IPC: 0.67904 cumulative IPC: 0.489486 (Simulation time: 1 hr 47 min 30 sec) 
Heartbeat CPU 0 instructions: 45000000 cycles: 74086123 heartbeat IPC: 0.679335 cumulative IPC: 0.493426 (Simulation time: 1 hr 50 min 15 sec) 
Heartbeat CPU 0 instructions: 46000003 cycles: 75557414 heartbeat IPC: 0.679677 cumulative IPC: 0.49721 (Simulation time: 1 hr 52 min 46 sec) 
Heartbeat CPU 0 instructions: 47000002 cycles: 77191453 heartbeat IPC: 0.61198 cumulative IPC: 0.499743 (Simulation time: 1 hr 55 min 20 sec) 
Heartbeat CPU 0 instructions: 48000000 cycles: 79477202 heartbeat IPC: 0.437492 cumulative IPC: 0.497879 (Simulation time: 1 hr 57 min 55 sec) 
Heartbeat CPU 0 instructions: 49000000 cycles: 81753121 heartbeat IPC: 0.439383 cumulative IPC: 0.496185 (Simulation time: 2 hr 0 min 28 sec) 
Heartbeat CPU 0 instructions: 50000003 cycles: 84042709 heartbeat IPC: 0.436761 cumulative IPC: 0.494503 (Simulation time: 2 hr 3 min 1 sec) 
Heartbeat CPU 0 instructions: 51000000 cycles: 86332098 heartbeat IPC: 0.436796 cumulative IPC: 0.492915 (Simulation time: 2 hr 5 min 21 sec) 
Heartbeat CPU 0 instructions: 52000000 cycles: 88636534 heartbeat IPC: 0.433946 cumulative IPC: 0.491325 (Simulation time: 2 hr 8 min 0 sec) 
Heartbeat CPU 0 instructions: 53000003 cycles: 90913628 heartbeat IPC: 0.439158 cumulative IPC: 0.489972 (Simulation time: 2 hr 10 min 39 sec) 
Heartbeat CPU 0 instructions: 54000003 cycles: 93191543 heartbeat IPC: 0.438998 cumulative IPC: 0.488682 (Simulation time: 2 hr 13 min 15 sec) 
Heartbeat CPU 0 instructions: 55000002 cycles: 95479985 heartbeat IPC: 0.436978 cumulative IPC: 0.487401 (Simulation time: 2 hr 15 min 53 sec) 
Heartbeat CPU 0 instructions: 56000000 cycles: 97800552 heartbeat IPC: 0.430928 cumulative IPC: 0.486016 (Simulation time: 2 hr 18 min 40 sec) 
Heartbeat CPU 0 instructions: 57000001 cycles: 100113004 heartbeat IPC: 0.432442 cumulative IPC: 0.484738 (Simulation time: 2 hr 21 min 21 sec) 
Heartbeat CPU 0 instructions: 58000000 cycles: 102431374 heartbeat IPC: 0.431337 cumulative IPC: 0.483491 (Simulation time: 2 hr 24 min 8 sec) 
Heartbeat CPU 0 instructions: 59000000 cycles: 104751733 heartbeat IPC: 0.430968 cumulative IPC: 0.482292 (Simulation time: 2 hr 26 min 50 sec) 
Heartbeat CPU 0 instructions: 60000000 cycles: 107056176 heartbeat IPC: 0.433944 cumulative IPC: 0.481219 (Simulation time: 2 hr 29 min 33 sec) 
Heartbeat CPU 0 instructions: 61000001 cycles: 109370314 heartbeat IPC: 0.432127 cumulative IPC: 0.48015 (Simulation time: 2 hr 32 min 16 sec) 
Heartbeat CPU 0 instructions: 62000000 cycles: 111687547 heartbeat IPC: 0.431549 cumulative IPC: 0.479112 (Simulation time: 2 hr 35 min 9 sec) 
Heartbeat CPU 0 instructions: 63000001 cycles: 113930084 heartbeat IPC: 0.445924 cumulative IPC: 0.47844 (Simulation time: 2 hr 37 min 42 sec) 
Heartbeat CPU 0 instructions: 64000000 cycles: 116112700 heartbeat IPC: 0.458165 cumulative IPC: 0.478049 (Simulation time: 2 hr 40 min 13 sec) 
Heartbeat CPU 0 instructions: 65000000 cycles: 118257478 heartbeat IPC: 0.466249 cumulative IPC: 0.477829 (Simulation time: 2 hr 42 min 53 sec) 
Heartbeat CPU 0 instructions: 66000001 cycles: 120422507 heartbeat IPC: 0.461888 cumulative IPC: 0.477534 (Simulation time: 2 hr 45 min 17 sec) 
Heartbeat CPU 0 instructions: 67000000 cycles: 122531690 heartbeat IPC: 0.474117 cumulative IPC: 0.477474 (Simulation time: 2 hr 47 min 56 sec) 
Heartbeat CPU 0 instructions: 68000000 cycles: 124690963 heartbeat IPC: 0.463119 cumulative IPC: 0.477219 (Simulation time: 2 hr 50 min 21 sec) 
Heartbeat CPU 0 instructions: 69000002 cycles: 126831929 heartbeat IPC: 0.46708 cumulative IPC: 0.477043 (Simulation time: 2 hr 52 min 43 sec) 
Heartbeat CPU 0 instructions: 70000001 cycles: 128977033 heartbeat IPC: 0.466177 cumulative IPC: 0.476858 (Simulation time: 2 hr 55 min 14 sec) 
Heartbeat CPU 0 instructions: 71000000 cycles: 131138733 heartbeat IPC: 0.462598 cumulative IPC: 0.476617 (Simulation time: 2 hr 57 min 52 sec) 
Heartbeat CPU 0 instructions: 72000000 cycles: 133254212 heartbeat IPC: 0.472706 cumulative IPC: 0.476554 (Simulation time: 3 hr 0 min 27 sec) 
Heartbeat CPU 0 instructions: 73000002 cycles: 135411178 heartbeat IPC: 0.463615 cumulative IPC: 0.476343 (Simulation time: 3 hr 2 min 58 sec) 
Heartbeat CPU 0 instructions: 74000002 cycles: 137529951 heartbeat IPC: 0.471971 cumulative IPC: 0.476274 (Simulation time: 3 hr 5 min 17 sec) 
Heartbeat CPU 0 instructions: 75000001 cycles: 139678328 heartbeat IPC: 0.465467 cumulative IPC: 0.476104 (Simulation time: 3 hr 7 min 49 sec) 
Heartbeat CPU 0 instructions: 76000000 cycles: 141813423 heartbeat IPC: 0.468363 cumulative IPC: 0.475985 (Simulation time: 3 hr 10 min 16 sec) 
Heartbeat CPU 0 instructions: 77000000 cycles: 143944513 heartbeat IPC: 0.469243 cumulative IPC: 0.475882 (Simulation time: 3 hr 12 min 36 sec) 
Heartbeat CPU 0 instructions: 78000002 cycles: 146109945 heartbeat IPC: 0.461803 cumulative IPC: 0.475669 (Simulation time: 3 hr 14 min 47 sec) 
Heartbeat CPU 0 instructions: 79000001 cycles: 148233158 heartbeat IPC: 0.470984 cumulative IPC: 0.475601 (Simulation time: 3 hr 17 min 4 sec) 
Heartbeat CPU 0 instructions: 80000000 cycles: 150403820 heartbeat IPC: 0.460689 cumulative IPC: 0.475381 (Simulation time: 3 hr 19 min 21 sec) 
Heartbeat CPU 0 instructions: 81000000 cycles: 152535939 heartbeat IPC: 0.469017 cumulative IPC: 0.47529 (Simulation time: 3 hr 21 min 36 sec) 
Heartbeat CPU 0 instructions: 82000000 cycles: 154677776 heartbeat IPC: 0.466889 cumulative IPC: 0.475171 (Simulation time: 3 hr 23 min 47 sec) 
Heartbeat CPU 0 instructions: 83000001 cycles: 157070316 heartbeat IPC: 0.417966 cumulative IPC: 0.474282 (Simulation time: 3 hr 26 min 12 sec) 
Heartbeat CPU 0 instructions: 84000000 cycles: 159580262 heartbeat IPC: 0.398415 cumulative IPC: 0.473065 (Simulation time: 3 hr 28 min 38 sec) 
Heartbeat CPU 0 instructions: 85000001 cycles: 162080920 heartbeat IPC: 0.399895 cumulative IPC: 0.471913 (Simulation time: 3 hr 31 min 19 sec) 
Heartbeat CPU 0 instructions: 86000001 cycles: 164586916 heartbeat IPC: 0.399043 cumulative IPC: 0.470782 (Simulation time: 3 hr 34 min 4 sec) 
Heartbeat CPU 0 instructions: 87000003 cycles: 167106557 heartbeat IPC: 0.396883 cumulative IPC: 0.469646 (Simulation time: 3 hr 36 min 32 sec) 
Heartbeat CPU 0 instructions: 88000000 cycles: 169626770 heartbeat IPC: 0.396791 cumulative IPC: 0.468544 (Simulation time: 3 hr 39 min 0 sec) 
Heartbeat CPU 0 instructions: 89000001 cycles: 172149009 heartbeat IPC: 0.396474 cumulative IPC: 0.467468 (Simulation time: 3 hr 41 min 21 sec) 
Heartbeat CPU 0 instructions: 90000000 cycles: 174658083 heartbeat IPC: 0.398553 cumulative IPC: 0.46646 (Simulation time: 3 hr 43 min 56 sec) 
Heartbeat CPU 0 instructions: 91000002 cycles: 177157411 heartbeat IPC: 0.400108 cumulative IPC: 0.465507 (Simulation time: 3 hr 46 min 34 sec) 
Heartbeat CPU 0 instructions: 92000000 cycles: 179646757 heartbeat IPC: 0.401711 cumulative IPC: 0.464607 (Simulation time: 3 hr 49 min 8 sec) 
Heartbeat CPU 0 instructions: 93000003 cycles: 182147901 heartbeat IPC: 0.399818 cumulative IPC: 0.463702 (Simulation time: 3 hr 51 min 35 sec) 
Heartbeat CPU 0 instructions: 94000000 cycles: 184663535 heartbeat IPC: 0.397513 cumulative IPC: 0.462784 (Simulation time: 3 hr 54 min 25 sec) 
Heartbeat CPU 0 instructions: 95000002 cycles: 187183646 heartbeat IPC: 0.396809 cumulative IPC: 0.461881 (Simulation time: 3 hr 57 min 2 sec) 
Heartbeat CPU 0 instructions: 96000000 cycles: 189715275 heartbeat IPC: 0.395002 cumulative IPC: 0.460973 (Simulation time: 3 hr 59 min 33 sec) 
Heartbeat CPU 0 instructions: 97000001 cycles: 192236529 heartbeat IPC: 0.396628 cumulative IPC: 0.460115 (Simulation time: 4 hr 2 min 7 sec) 
Heartbeat CPU 0 instructions: 98000002 cycles: 194742578 heartbeat IPC: 0.399035 cumulative IPC: 0.459316 (Simulation time: 4 hr 4 min 29 sec) 
Heartbeat CPU 0 instructions: 99000002 cycles: 196367099 heartbeat IPC: 0.615566 cumulative IPC: 0.46063 (Simulation time: 4 hr 7 min 5 sec) 
Heartbeat CPU 0 instructions: 100000000 cycles: 197814009 heartbeat IPC: 0.691127 cumulative IPC: 0.462343 (Simulation time: 4 hr 9 min 31 sec) 
Heartbeat CPU 0 instructions: 101000000 cycles: 199262096 heartbeat IPC: 0.690566 cumulative IPC: 0.464028 (Simulation time: 4 hr 11 min 50 sec) 
Heartbeat CPU 0 instructions: 102000003 cycles: 200710283 heartbeat IPC: 0.690521 cumulative IPC: 0.465689 (Simulation time: 4 hr 14 min 8 sec) 
Heartbeat CPU 0 instructions: 103000002 cycles: 202157911 heartbeat IPC: 0.690785 cumulative IPC: 0.467326 (Simulation time: 4 hr 16 min 18 sec) 
Heartbeat CPU 0 instructions: 104000000 cycles: 203606873 heartbeat IPC: 0.690148 cumulative IPC: 0.468937 (Simulation time: 4 hr 18 min 28 sec) 
Heartbeat CPU 0 instructions: 105000000 cycles: 205053950 heartbeat IPC: 0.691048 cumulative IPC: 0.470529 (Simulation time: 4 hr 20 min 43 sec) 
Heartbeat CPU 0 instructions: 106000001 cycles: 206500569 heartbeat IPC: 0.691268 cumulative IPC: 0.472099 (Simulation time: 4 hr 22 min 44 sec) 
Heartbeat CPU 0 instructions: 107000000 cycles: 207944880 heartbeat IPC: 0.692371 cumulative IPC: 0.473653 (Simulation time: 4 hr 24 min 37 sec) 
Heartbeat CPU 0 instructions: 108000000 cycles: 209386668 heartbeat IPC: 0.693583 cumulative IPC: 0.47519 (Simulation time: 4 hr 26 min 24 sec) 
Heartbeat CPU 0 instructions: 109000001 cycles: 210824355 heartbeat IPC: 0.695562 cumulative IPC: 0.476716 (Simulation time: 4 hr 28 min 2 sec) 
Heartbeat CPU 0 instructions: 110000000 cycles: 212258319 heartbeat IPC: 0.697367 cumulative IPC: 0.478229 (Simulation time: 4 hr 29 min 32 sec) 
Finished CPU 0 instructions: 100000001 cycles: 209104869 cummulative IPC: 0.478229 (Simulation time: 4 hr 29 min 32 sec) 

ChampSim completed all CPUs

Region of Interest Statistics

CPU 0 cummulative IPC: 0.478229 instructions: 100000001 cycles: 209104869
LLC TOTAL     ACCESS:    4047262  HIT:     157914  MISS:    3889348
LLC LOAD      ACCESS:     835119  HIT:        661  MISS:     834458
LLC RFO       ACCESS:         24  HIT:          0  MISS:         24
LLC PREFETCH  ACCESS:    2171683  HIT:       1548  MISS:    2170135
LLC WRITEBACK ACCESS:    1040436  HIT:     155705  MISS:     884731
Insertion Distribution: 
	LOAD 0 0 108620 729947 
	RFO 0 0 24 0 
	PREF 0 0 273757 2155059 
	WRITEBACK 0 0 0 983314 
Total Prefetch Downgrades: 344
