
*** ChampSim Multicore Out-of-Order Simulator ***

Warmup Instructions: 10000000
Simulation Instructions: 100000000
Configuration: 2
Number of CPUs: 1
LLC sets: 2048
LLC ways: 16
Off-chip DRAM Channels: 1 Width: 64-bit Data Rate: 1600 MT/s

CPU 0 runs /datasets/cs240c-wi22-a00-public/data/Assignment2-gz/wrf_1212B.trace.gz
CPU 0 L1D next line prefetcher
CPU 0 L2C IP-based stride prefetcher
Initialize SRRIP state
Heartbeat CPU 0 instructions: 1000001 cycles: 598660 heartbeat IPC: 1.6704 cumulative IPC: 1.6704 (Simulation time: 0 hr 2 min 40 sec) 
Heartbeat CPU 0 instructions: 2000000 cycles: 1197118 heartbeat IPC: 1.67096 cumulative IPC: 1.67068 (Simulation time: 0 hr 5 min 19 sec) 
Heartbeat CPU 0 instructions: 3000001 cycles: 1795976 heartbeat IPC: 1.66985 cumulative IPC: 1.6704 (Simulation time: 0 hr 7 min 50 sec) 
Heartbeat CPU 0 instructions: 4000000 cycles: 2394087 heartbeat IPC: 1.67193 cumulative IPC: 1.67078 (Simulation time: 0 hr 10 min 26 sec) 
Heartbeat CPU 0 instructions: 5000000 cycles: 2993053 heartbeat IPC: 1.66954 cumulative IPC: 1.67054 (Simulation time: 0 hr 13 min 13 sec) 
Heartbeat CPU 0 instructions: 6000001 cycles: 3592667 heartbeat IPC: 1.66774 cumulative IPC: 1.67007 (Simulation time: 0 hr 15 min 49 sec) 
Heartbeat CPU 0 instructions: 7000001 cycles: 4190665 heartbeat IPC: 1.67225 cumulative IPC: 1.67038 (Simulation time: 0 hr 18 min 31 sec) 
Heartbeat CPU 0 instructions: 8000000 cycles: 4788873 heartbeat IPC: 1.67166 cumulative IPC: 1.67054 (Simulation time: 0 hr 21 min 19 sec) 
Heartbeat CPU 0 instructions: 9000002 cycles: 5387792 heartbeat IPC: 1.66968 cumulative IPC: 1.67044 (Simulation time: 0 hr 23 min 47 sec) 
Heartbeat CPU 0 instructions: 10000001 cycles: 5987357 heartbeat IPC: 1.66787 cumulative IPC: 1.67019 (Simulation time: 0 hr 26 min 22 sec) 

Warmup complete CPU 0 instructions: 10000001 cycles: 5987357 (Simulation time: 0 hr 26 min 22 sec) 

Heartbeat CPU 0 instructions: 11000003 cycles: 7743719 heartbeat IPC: 0.56936 cumulative IPC: 0.56936 (Simulation time: 0 hr 29 min 17 sec) 
Heartbeat CPU 0 instructions: 12000000 cycles: 9513320 heartbeat IPC: 0.565097 cumulative IPC: 0.567221 (Simulation time: 0 hr 32 min 14 sec) 
Heartbeat CPU 0 instructions: 13000000 cycles: 11298746 heartbeat IPC: 0.56009 cumulative IPC: 0.564824 (Simulation time: 0 hr 35 min 13 sec) 
Heartbeat CPU 0 instructions: 14000002 cycles: 13082020 heartbeat IPC: 0.560767 cumulative IPC: 0.563804 (Simulation time: 0 hr 38 min 16 sec) 
Heartbeat CPU 0 instructions: 15000003 cycles: 14873145 heartbeat IPC: 0.558309 cumulative IPC: 0.562697 (Simulation time: 0 hr 41 min 11 sec) 
Heartbeat CPU 0 instructions: 16000000 cycles: 16621152 heartbeat IPC: 0.572078 cumulative IPC: 0.564239 (Simulation time: 0 hr 44 min 20 sec) 
Heartbeat CPU 0 instructions: 17000000 cycles: 18402583 heartbeat IPC: 0.561346 cumulative IPC: 0.563824 (Simulation time: 0 hr 47 min 15 sec) 
Heartbeat CPU 0 instructions: 18000000 cycles: 20184008 heartbeat IPC: 0.561348 cumulative IPC: 0.563513 (Simulation time: 0 hr 50 min 13 sec) 
Heartbeat CPU 0 instructions: 19000003 cycles: 21962577 heartbeat IPC: 0.562251 cumulative IPC: 0.563373 (Simulation time: 0 hr 53 min 18 sec) 
Heartbeat CPU 0 instructions: 20000000 cycles: 23710870 heartbeat IPC: 0.571985 cumulative IPC: 0.564222 (Simulation time: 0 hr 56 min 10 sec) 
Heartbeat CPU 0 instructions: 21000001 cycles: 25477486 heartbeat IPC: 0.566055 cumulative IPC: 0.564388 (Simulation time: 0 hr 59 min 0 sec) 
Heartbeat CPU 0 instructions: 22000001 cycles: 27260244 heartbeat IPC: 0.560929 cumulative IPC: 0.564098 (Simulation time: 1 hr 2 min 4 sec) 
Heartbeat CPU 0 instructions: 23000000 cycles: 29046641 heartbeat IPC: 0.559785 cumulative IPC: 0.563764 (Simulation time: 1 hr 5 min 0 sec) 
Heartbeat CPU 0 instructions: 24000000 cycles: 30828344 heartbeat IPC: 0.561261 cumulative IPC: 0.563585 (Simulation time: 1 hr 7 min 45 sec) 
Heartbeat CPU 0 instructions: 25000002 cycles: 32575404 heartbeat IPC: 0.572391 cumulative IPC: 0.564163 (Simulation time: 1 hr 10 min 40 sec) 
Heartbeat CPU 0 instructions: 26000000 cycles: 34357448 heartbeat IPC: 0.561152 cumulative IPC: 0.563974 (Simulation time: 1 hr 13 min 42 sec) 
Heartbeat CPU 0 instructions: 27000000 cycles: 36139551 heartbeat IPC: 0.561135 cumulative IPC: 0.563806 (Simulation time: 1 hr 16 min 43 sec) 
Heartbeat CPU 0 instructions: 28000000 cycles: 37918243 heartbeat IPC: 0.562211 cumulative IPC: 0.563717 (Simulation time: 1 hr 19 min 45 sec) 
Heartbeat CPU 0 instructions: 29000000 cycles: 39667548 heartbeat IPC: 0.571656 cumulative IPC: 0.56413 (Simulation time: 1 hr 22 min 43 sec) 
Heartbeat CPU 0 instructions: 30000003 cycles: 41428553 heartbeat IPC: 0.567859 cumulative IPC: 0.564315 (Simulation time: 1 hr 25 min 36 sec) 
Heartbeat CPU 0 instructions: 31000000 cycles: 43210994 heartbeat IPC: 0.561027 cumulative IPC: 0.564158 (Simulation time: 1 hr 28 min 37 sec) 
Heartbeat CPU 0 instructions: 32000000 cycles: 44992533 heartbeat IPC: 0.561312 cumulative IPC: 0.564028 (Simulation time: 1 hr 31 min 37 sec) 
Heartbeat CPU 0 instructions: 33000000 cycles: 46777125 heartbeat IPC: 0.560352 cumulative IPC: 0.563867 (Simulation time: 1 hr 34 min 40 sec) 
Heartbeat CPU 0 instructions: 34000000 cycles: 48515655 heartbeat IPC: 0.575199 cumulative IPC: 0.56433 (Simulation time: 1 hr 37 min 20 sec) 
Heartbeat CPU 0 instructions: 35000003 cycles: 50298777 heartbeat IPC: 0.560816 cumulative IPC: 0.564189 (Simulation time: 1 hr 40 min 32 sec) 
Heartbeat CPU 0 instructions: 36000000 cycles: 52079818 heartbeat IPC: 0.561468 cumulative IPC: 0.564084 (Simulation time: 1 hr 43 min 40 sec) 
Heartbeat CPU 0 instructions: 37000001 cycles: 53863406 heartbeat IPC: 0.560668 cumulative IPC: 0.563956 (Simulation time: 1 hr 46 min 37 sec) 
Heartbeat CPU 0 instructions: 38000000 cycles: 55614716 heartbeat IPC: 0.571001 cumulative IPC: 0.564205 (Simulation time: 1 hr 49 min 34 sec) 
Heartbeat CPU 0 instructions: 39000000 cycles: 57369315 heartbeat IPC: 0.569931 cumulative IPC: 0.5644 (Simulation time: 1 hr 52 min 39 sec) 
Heartbeat CPU 0 instructions: 40000000 cycles: 59151091 heartbeat IPC: 0.561238 cumulative IPC: 0.564294 (Simulation time: 1 hr 55 min 52 sec) 
Heartbeat CPU 0 instructions: 41000001 cycles: 60932585 heartbeat IPC: 0.561327 cumulative IPC: 0.564198 (Simulation time: 1 hr 58 min 56 sec) 
Heartbeat CPU 0 instructions: 42000003 cycles: 62715584 heartbeat IPC: 0.560854 cumulative IPC: 0.564093 (Simulation time: 2 hr 1 min 46 sec) 
Heartbeat CPU 0 instructions: 43000001 cycles: 64443489 heartbeat IPC: 0.578734 cumulative IPC: 0.564526 (Simulation time: 2 hr 4 min 33 sec) 
Heartbeat CPU 0 instructions: 44000000 cycles: 66224416 heartbeat IPC: 0.561505 cumulative IPC: 0.564437 (Simulation time: 2 hr 7 min 39 sec) 
Heartbeat CPU 0 instructions: 45000001 cycles: 68005010 heartbeat IPC: 0.561611 cumulative IPC: 0.564355 (Simulation time: 2 hr 10 min 42 sec) 
Heartbeat CPU 0 instructions: 46000001 cycles: 69784037 heartbeat IPC: 0.562105 cumulative IPC: 0.564293 (Simulation time: 2 hr 13 min 37 sec) 
Heartbeat CPU 0 instructions: 47000000 cycles: 71535755 heartbeat IPC: 0.570868 cumulative IPC: 0.564468 (Simulation time: 2 hr 16 min 37 sec) 
Heartbeat CPU 0 instructions: 48000000 cycles: 73277564 heartbeat IPC: 0.574116 cumulative IPC: 0.564718 (Simulation time: 2 hr 19 min 35 sec) 
Heartbeat CPU 0 instructions: 49000002 cycles: 75059220 heartbeat IPC: 0.561277 cumulative IPC: 0.564629 (Simulation time: 2 hr 22 min 36 sec) 
Heartbeat CPU 0 instructions: 50000002 cycles: 76839922 heartbeat IPC: 0.561576 cumulative IPC: 0.564553 (Simulation time: 2 hr 25 min 38 sec) 
Heartbeat CPU 0 instructions: 51000002 cycles: 78639734 heartbeat IPC: 0.555614 cumulative IPC: 0.564331 (Simulation time: 2 hr 28 min 38 sec) 
Heartbeat CPU 0 instructions: 52000000 cycles: 80363062 heartbeat IPC: 0.580271 cumulative IPC: 0.564701 (Simulation time: 2 hr 31 min 34 sec) 
Heartbeat CPU 0 instructions: 53000002 cycles: 82130180 heartbeat IPC: 0.565894 cumulative IPC: 0.564728 (Simulation time: 2 hr 34 min 37 sec) 
Heartbeat CPU 0 instructions: 54000001 cycles: 83910588 heartbeat IPC: 0.561668 cumulative IPC: 0.564658 (Simulation time: 2 hr 37 min 30 sec) 
Heartbeat CPU 0 instructions: 55000000 cycles: 85690319 heartbeat IPC: 0.561882 cumulative IPC: 0.564596 (Simulation time: 2 hr 40 min 20 sec) 
Heartbeat CPU 0 instructions: 56000000 cycles: 87463744 heartbeat IPC: 0.563881 cumulative IPC: 0.564581 (Simulation time: 2 hr 43 min 26 sec) 
Heartbeat CPU 0 instructions: 57000001 cycles: 89189352 heartbeat IPC: 0.579506 cumulative IPC: 0.56489 (Simulation time: 2 hr 46 min 19 sec) 
Heartbeat CPU 0 instructions: 58000001 cycles: 90970969 heartbeat IPC: 0.561288 cumulative IPC: 0.564815 (Simulation time: 2 hr 49 min 27 sec) 
Heartbeat CPU 0 instructions: 59000000 cycles: 92752223 heartbeat IPC: 0.561402 cumulative IPC: 0.564745 (Simulation time: 2 hr 52 min 25 sec) 
Heartbeat CPU 0 instructions: 60000000 cycles: 94535890 heartbeat IPC: 0.560643 cumulative IPC: 0.564662 (Simulation time: 2 hr 55 min 27 sec) 
Heartbeat CPU 0 instructions: 61000001 cycles: 96276300 heartbeat IPC: 0.574578 cumulative IPC: 0.564853 (Simulation time: 2 hr 58 min 32 sec) 
Heartbeat CPU 0 instructions: 62000001 cycles: 98019453 heartbeat IPC: 0.573673 cumulative IPC: 0.56502 (Simulation time: 3 hr 1 min 30 sec) 
Heartbeat CPU 0 instructions: 63000002 cycles: 99804630 heartbeat IPC: 0.560169 cumulative IPC: 0.564928 (Simulation time: 3 hr 4 min 42 sec) 
Heartbeat CPU 0 instructions: 64000000 cycles: 101586770 heartbeat IPC: 0.561122 cumulative IPC: 0.564857 (Simulation time: 3 hr 7 min 47 sec) 
Heartbeat CPU 0 instructions: 65000000 cycles: 103373894 heartbeat IPC: 0.559558 cumulative IPC: 0.56476 (Simulation time: 3 hr 10 min 58 sec) 
Heartbeat CPU 0 instructions: 66000001 cycles: 105088331 heartbeat IPC: 0.583282 cumulative IPC: 0.56508 (Simulation time: 3 hr 14 min 2 sec) 
Heartbeat CPU 0 instructions: 67000002 cycles: 106845059 heartbeat IPC: 0.569241 cumulative IPC: 0.565153 (Simulation time: 3 hr 17 min 0 sec) 
Heartbeat CPU 0 instructions: 68000000 cycles: 108630046 heartbeat IPC: 0.560227 cumulative IPC: 0.565067 (Simulation time: 3 hr 19 min 53 sec) 
Heartbeat CPU 0 instructions: 69000001 cycles: 110412869 heartbeat IPC: 0.560909 cumulative IPC: 0.564996 (Simulation time: 3 hr 22 min 47 sec) 
Heartbeat CPU 0 instructions: 70000000 cycles: 112181666 heartbeat IPC: 0.565355 cumulative IPC: 0.565002 (Simulation time: 3 hr 25 min 43 sec) 
Heartbeat CPU 0 instructions: 71000001 cycles: 113897369 heartbeat IPC: 0.582852 cumulative IPC: 0.565286 (Simulation time: 3 hr 28 min 24 sec) 
Heartbeat CPU 0 instructions: 72000000 cycles: 115674544 heartbeat IPC: 0.56269 cumulative IPC: 0.565244 (Simulation time: 3 hr 31 min 25 sec) 
Heartbeat CPU 0 instructions: 73000001 cycles: 117462473 heartbeat IPC: 0.559307 cumulative IPC: 0.565149 (Simulation time: 3 hr 34 min 31 sec) 
Heartbeat CPU 0 instructions: 74000000 cycles: 119241734 heartbeat IPC: 0.562031 cumulative IPC: 0.5651 (Simulation time: 3 hr 37 min 44 sec) 
Heartbeat CPU 0 instructions: 75000002 cycles: 120997966 heartbeat IPC: 0.569402 cumulative IPC: 0.565165 (Simulation time: 3 hr 40 min 34 sec) 
Heartbeat CPU 0 instructions: 76000000 cycles: 122732465 heartbeat IPC: 0.576534 cumulative IPC: 0.565334 (Simulation time: 3 hr 43 min 18 sec) 
Heartbeat CPU 0 instructions: 77000003 cycles: 124510133 heartbeat IPC: 0.562536 cumulative IPC: 0.565292 (Simulation time: 3 hr 46 min 14 sec) 
Heartbeat CPU 0 instructions: 78000000 cycles: 126291933 heartbeat IPC: 0.561229 cumulative IPC: 0.565232 (Simulation time: 3 hr 49 min 9 sec) 
Heartbeat CPU 0 instructions: 79000000 cycles: 128089447 heartbeat IPC: 0.556324 cumulative IPC: 0.565101 (Simulation time: 3 hr 52 min 15 sec) 
Heartbeat CPU 0 instructions: 80000000 cycles: 129806623 heartbeat IPC: 0.582352 cumulative IPC: 0.56534 (Simulation time: 3 hr 55 min 6 sec) 
Heartbeat CPU 0 instructions: 81000003 cycles: 131573835 heartbeat IPC: 0.565865 cumulative IPC: 0.565347 (Simulation time: 3 hr 58 min 3 sec) 
Heartbeat CPU 0 instructions: 82000002 cycles: 133363849 heartbeat IPC: 0.558654 cumulative IPC: 0.565253 (Simulation time: 4 hr 0 min 48 sec) 
Heartbeat CPU 0 instructions: 83000001 cycles: 135149599 heartbeat IPC: 0.559988 cumulative IPC: 0.565181 (Simulation time: 4 hr 3 min 43 sec) 
Heartbeat CPU 0 instructions: 84000000 cycles: 136925100 heartbeat IPC: 0.563221 cumulative IPC: 0.565154 (Simulation time: 4 hr 6 min 37 sec) 
Heartbeat CPU 0 instructions: 85000000 cycles: 138642674 heartbeat IPC: 0.582217 cumulative IPC: 0.565375 (Simulation time: 4 hr 9 min 26 sec) 
Heartbeat CPU 0 instructions: 86000001 cycles: 140428229 heartbeat IPC: 0.56005 cumulative IPC: 0.565304 (Simulation time: 4 hr 12 min 7 sec) 
Heartbeat CPU 0 instructions: 87000000 cycles: 142210582 heartbeat IPC: 0.561056 cumulative IPC: 0.565249 (Simulation time: 4 hr 14 min 49 sec) 
Heartbeat CPU 0 instructions: 88000000 cycles: 143987074 heartbeat IPC: 0.562907 cumulative IPC: 0.565219 (Simulation time: 4 hr 17 min 38 sec) 
Heartbeat CPU 0 instructions: 89000000 cycles: 145738825 heartbeat IPC: 0.570857 cumulative IPC: 0.565289 (Simulation time: 4 hr 20 min 15 sec) 
Heartbeat CPU 0 instructions: 90000000 cycles: 147494547 heartbeat IPC: 0.569566 cumulative IPC: 0.565342 (Simulation time: 4 hr 22 min 50 sec) 
Heartbeat CPU 0 instructions: 91000001 cycles: 149274554 heartbeat IPC: 0.561796 cumulative IPC: 0.565298 (Simulation time: 4 hr 25 min 18 sec) 
Heartbeat CPU 0 instructions: 92000000 cycles: 151057283 heartbeat IPC: 0.560937 cumulative IPC: 0.565245 (Simulation time: 4 hr 27 min 36 sec) 
Heartbeat CPU 0 instructions: 93000003 cycles: 152840669 heartbeat IPC: 0.560733 cumulative IPC: 0.56519 (Simulation time: 4 hr 29 min 39 sec) 
Heartbeat CPU 0 instructions: 94000001 cycles: 154567458 heartbeat IPC: 0.579108 cumulative IPC: 0.565352 (Simulation time: 4 hr 31 min 36 sec) 
Heartbeat CPU 0 instructions: 95000001 cycles: 156348487 heartbeat IPC: 0.561473 cumulative IPC: 0.565306 (Simulation time: 4 hr 33 min 30 sec) 
Heartbeat CPU 0 instructions: 96000000 cycles: 158128448 heartbeat IPC: 0.561809 cumulative IPC: 0.565265 (Simulation time: 4 hr 35 min 20 sec) 
Heartbeat CPU 0 instructions: 97000000 cycles: 159908327 heartbeat IPC: 0.561836 cumulative IPC: 0.565225 (Simulation time: 4 hr 37 min 9 sec) 
Heartbeat CPU 0 instructions: 98000000 cycles: 161669747 heartbeat IPC: 0.567724 cumulative IPC: 0.565253 (Simulation time: 4 hr 38 min 54 sec) 
Heartbeat CPU 0 instructions: 99000000 cycles: 163424191 heartbeat IPC: 0.569981 cumulative IPC: 0.565306 (Simulation time: 4 hr 40 min 32 sec) 
Heartbeat CPU 0 instructions: 100000000 cycles: 165202535 heartbeat IPC: 0.562321 cumulative IPC: 0.565273 (Simulation time: 4 hr 42 min 10 sec) 
Heartbeat CPU 0 instructions: 101000000 cycles: 166980309 heartbeat IPC: 0.562501 cumulative IPC: 0.565242 (Simulation time: 4 hr 43 min 43 sec) 
Heartbeat CPU 0 instructions: 102000003 cycles: 168768642 heartbeat IPC: 0.559182 cumulative IPC: 0.565176 (Simulation time: 4 hr 45 min 11 sec) 
Heartbeat CPU 0 instructions: 103000001 cycles: 170499730 heartbeat IPC: 0.57767 cumulative IPC: 0.565307 (Simulation time: 4 hr 46 min 27 sec) 
Heartbeat CPU 0 instructions: 104000000 cycles: 172284663 heartbeat IPC: 0.560245 cumulative IPC: 0.565253 (Simulation time: 4 hr 47 min 35 sec) 
Heartbeat CPU 0 instructions: 105000002 cycles: 174064680 heartbeat IPC: 0.561794 cumulative IPC: 0.565216 (Simulation time: 4 hr 48 min 42 sec) 
Heartbeat CPU 0 instructions: 106000001 cycles: 175842580 heartbeat IPC: 0.562461 cumulative IPC: 0.565187 (Simulation time: 4 hr 49 min 50 sec) 
Heartbeat CPU 0 instructions: 107000003 cycles: 177602723 heartbeat IPC: 0.568137 cumulative IPC: 0.565217 (Simulation time: 4 hr 50 min 48 sec) 
Heartbeat CPU 0 instructions: 108000000 cycles: 179368172 heartbeat IPC: 0.566426 cumulative IPC: 0.56523 (Simulation time: 4 hr 51 min 39 sec) 
Heartbeat CPU 0 instructions: 109000002 cycles: 181152100 heartbeat IPC: 0.560562 cumulative IPC: 0.565182 (Simulation time: 4 hr 52 min 29 sec) 
Heartbeat CPU 0 instructions: 110000003 cycles: 182930662 heartbeat IPC: 0.562253 cumulative IPC: 0.565153 (Simulation time: 4 hr 53 min 11 sec) 
Finished CPU 0 instructions: 100000002 cycles: 176943305 cummulative IPC: 0.565153 (Simulation time: 4 hr 53 min 11 sec) 

ChampSim completed all CPUs

Region of Interest Statistics

CPU 0 cummulative IPC: 0.565153 instructions: 100000002 cycles: 176943305
LLC TOTAL     ACCESS:     134641  HIT:      37947  MISS:      96694
LLC LOAD      ACCESS:      14853  HIT:       4262  MISS:      10591
LLC RFO       ACCESS:       1241  HIT:        338  MISS:        903
LLC PREFETCH  ACCESS:      79450  HIT:       9966  MISS:      69484
LLC WRITEBACK ACCESS:      39097  HIT:      23381  MISS:      15716
Insertion Distribution: 
	LOAD 513 0 10896 834 
	RFO 0 0 1106 123 
	PREF 0 0 34942 42738 
	WRITEBACK 0 0 0 15716 
Total Prefetch Downgrades: 308
