
*** ChampSim Multicore Out-of-Order Simulator ***

Warmup Instructions: 10000000
Simulation Instructions: 100000000
Configuration: 2
Number of CPUs: 1
LLC sets: 2048
LLC ways: 16
Off-chip DRAM Channels: 1 Width: 64-bit Data Rate: 1600 MT/s

CPU 0 runs /datasets/cs240c-wi22-a00-public/data/Assignment2-gz/GemsFDTD_712B.trace.gz
CPU 0 L1D next line prefetcher
CPU 0 L2C IP-based stride prefetcher
Initialize SRRIP state
Heartbeat CPU 0 instructions: 1000003 cycles: 634340 heartbeat IPC: 1.57645 cumulative IPC: 1.57645 (Simulation time: 0 hr 3 min 15 sec) 
Heartbeat CPU 0 instructions: 2000000 cycles: 1268246 heartbeat IPC: 1.57752 cumulative IPC: 1.57698 (Simulation time: 0 hr 6 min 14 sec) 
Heartbeat CPU 0 instructions: 3000000 cycles: 1902230 heartbeat IPC: 1.57733 cumulative IPC: 1.5771 (Simulation time: 0 hr 9 min 9 sec) 
Heartbeat CPU 0 instructions: 4000000 cycles: 2535931 heartbeat IPC: 1.57803 cumulative IPC: 1.57733 (Simulation time: 0 hr 12 min 16 sec) 
Heartbeat CPU 0 instructions: 5000003 cycles: 3170080 heartbeat IPC: 1.57692 cumulative IPC: 1.57725 (Simulation time: 0 hr 15 min 0 sec) 
Heartbeat CPU 0 instructions: 6000002 cycles: 3803968 heartbeat IPC: 1.57756 cumulative IPC: 1.5773 (Simulation time: 0 hr 17 min 55 sec) 
Heartbeat CPU 0 instructions: 7000001 cycles: 4438108 heartbeat IPC: 1.57694 cumulative IPC: 1.57725 (Simulation time: 0 hr 20 min 46 sec) 
Heartbeat CPU 0 instructions: 8000000 cycles: 5071938 heartbeat IPC: 1.57771 cumulative IPC: 1.57731 (Simulation time: 0 hr 23 min 55 sec) 
Heartbeat CPU 0 instructions: 9000001 cycles: 5706062 heartbeat IPC: 1.57698 cumulative IPC: 1.57727 (Simulation time: 0 hr 26 min 46 sec) 
Heartbeat CPU 0 instructions: 10000002 cycles: 6339830 heartbeat IPC: 1.57787 cumulative IPC: 1.57733 (Simulation time: 0 hr 29 min 42 sec) 

Warmup complete CPU 0 instructions: 10000002 cycles: 6339830 (Simulation time: 0 hr 29 min 42 sec) 

Heartbeat CPU 0 instructions: 11000001 cycles: 7956174 heartbeat IPC: 0.61868 cumulative IPC: 0.61868 (Simulation time: 0 hr 33 min 5 sec) 
Heartbeat CPU 0 instructions: 12000000 cycles: 9580618 heartbeat IPC: 0.615595 cumulative IPC: 0.617133 (Simulation time: 0 hr 36 min 25 sec) 
Heartbeat CPU 0 instructions: 13000000 cycles: 11196473 heartbeat IPC: 0.618867 cumulative IPC: 0.61771 (Simulation time: 0 hr 39 min 41 sec) 
Heartbeat CPU 0 instructions: 14000001 cycles: 12794583 heartbeat IPC: 0.62574 cumulative IPC: 0.619698 (Simulation time: 0 hr 42 min 48 sec) 
Heartbeat CPU 0 instructions: 15000000 cycles: 14377768 heartbeat IPC: 0.631638 cumulative IPC: 0.62205 (Simulation time: 0 hr 46 min 2 sec) 
Heartbeat CPU 0 instructions: 16000000 cycles: 16000085 heartbeat IPC: 0.616402 cumulative IPC: 0.621101 (Simulation time: 0 hr 49 min 8 sec) 
Heartbeat CPU 0 instructions: 17000001 cycles: 17610206 heartbeat IPC: 0.621072 cumulative IPC: 0.621097 (Simulation time: 0 hr 52 min 21 sec) 
Heartbeat CPU 0 instructions: 18000001 cycles: 19239418 heartbeat IPC: 0.613794 cumulative IPC: 0.620175 (Simulation time: 0 hr 55 min 46 sec) 
Heartbeat CPU 0 instructions: 19000003 cycles: 20839501 heartbeat IPC: 0.624969 cumulative IPC: 0.620704 (Simulation time: 0 hr 58 min 58 sec) 
Heartbeat CPU 0 instructions: 20000000 cycles: 22425370 heartbeat IPC: 0.630567 cumulative IPC: 0.621676 (Simulation time: 1 hr 2 min 11 sec) 
Heartbeat CPU 0 instructions: 21000003 cycles: 24034431 heartbeat IPC: 0.621482 cumulative IPC: 0.621659 (Simulation time: 1 hr 5 min 21 sec) 
Heartbeat CPU 0 instructions: 22000001 cycles: 25650013 heartbeat IPC: 0.618971 cumulative IPC: 0.621434 (Simulation time: 1 hr 8 min 47 sec) 
Heartbeat CPU 0 instructions: 23000002 cycles: 27246592 heartbeat IPC: 0.62634 cumulative IPC: 0.621808 (Simulation time: 1 hr 11 min 50 sec) 
Heartbeat CPU 0 instructions: 24000000 cycles: 28883438 heartbeat IPC: 0.61093 cumulative IPC: 0.621019 (Simulation time: 1 hr 15 min 13 sec) 
Heartbeat CPU 0 instructions: 25000000 cycles: 30499438 heartbeat IPC: 0.618812 cumulative IPC: 0.620871 (Simulation time: 1 hr 18 min 35 sec) 
Heartbeat CPU 0 instructions: 26000002 cycles: 32108643 heartbeat IPC: 0.621426 cumulative IPC: 0.620906 (Simulation time: 1 hr 21 min 35 sec) 
Heartbeat CPU 0 instructions: 27000002 cycles: 33732499 heartbeat IPC: 0.615818 cumulative IPC: 0.620604 (Simulation time: 1 hr 24 min 44 sec) 
Heartbeat CPU 0 instructions: 28000000 cycles: 35332714 heartbeat IPC: 0.624915 cumulative IPC: 0.620842 (Simulation time: 1 hr 27 min 52 sec) 
Heartbeat CPU 0 instructions: 29000002 cycles: 36932465 heartbeat IPC: 0.625099 cumulative IPC: 0.621065 (Simulation time: 1 hr 31 min 8 sec) 
Heartbeat CPU 0 instructions: 30000000 cycles: 38526827 heartbeat IPC: 0.627209 cumulative IPC: 0.621369 (Simulation time: 1 hr 34 min 28 sec) 
Heartbeat CPU 0 instructions: 31000001 cycles: 40138065 heartbeat IPC: 0.620641 cumulative IPC: 0.621334 (Simulation time: 1 hr 37 min 18 sec) 
Heartbeat CPU 0 instructions: 32000000 cycles: 41753605 heartbeat IPC: 0.618987 cumulative IPC: 0.621227 (Simulation time: 1 hr 40 min 38 sec) 
Heartbeat CPU 0 instructions: 33000000 cycles: 43354989 heartbeat IPC: 0.62446 cumulative IPC: 0.621367 (Simulation time: 1 hr 43 min 52 sec) 
Heartbeat CPU 0 instructions: 34000003 cycles: 44933784 heartbeat IPC: 0.633396 cumulative IPC: 0.621859 (Simulation time: 1 hr 46 min 54 sec) 
Heartbeat CPU 0 instructions: 35000000 cycles: 46534199 heartbeat IPC: 0.624836 cumulative IPC: 0.621978 (Simulation time: 1 hr 50 min 5 sec) 
Heartbeat CPU 0 instructions: 36000000 cycles: 48143685 heartbeat IPC: 0.621316 cumulative IPC: 0.621952 (Simulation time: 1 hr 53 min 24 sec) 
Heartbeat CPU 0 instructions: 37000001 cycles: 49729325 heartbeat IPC: 0.630661 cumulative IPC: 0.62227 (Simulation time: 1 hr 56 min 37 sec) 
Heartbeat CPU 0 instructions: 38000001 cycles: 51322765 heartbeat IPC: 0.627573 cumulative IPC: 0.622458 (Simulation time: 1 hr 59 min 52 sec) 
Heartbeat CPU 0 instructions: 39000000 cycles: 52938749 heartbeat IPC: 0.618817 cumulative IPC: 0.622332 (Simulation time: 2 hr 3 min 12 sec) 
Heartbeat CPU 0 instructions: 40000000 cycles: 54508331 heartbeat IPC: 0.637112 cumulative IPC: 0.622814 (Simulation time: 2 hr 6 min 26 sec) 
Heartbeat CPU 0 instructions: 41000003 cycles: 56101260 heartbeat IPC: 0.627776 cumulative IPC: 0.622972 (Simulation time: 2 hr 9 min 38 sec) 
Heartbeat CPU 0 instructions: 42000000 cycles: 57711881 heartbeat IPC: 0.620877 cumulative IPC: 0.622907 (Simulation time: 2 hr 12 min 52 sec) 
Heartbeat CPU 0 instructions: 43000002 cycles: 59317815 heartbeat IPC: 0.622692 cumulative IPC: 0.6229 (Simulation time: 2 hr 15 min 58 sec) 
Heartbeat CPU 0 instructions: 44000000 cycles: 60912836 heartbeat IPC: 0.62695 cumulative IPC: 0.623019 (Simulation time: 2 hr 19 min 4 sec) 
Heartbeat CPU 0 instructions: 45000002 cycles: 62497316 heartbeat IPC: 0.631123 cumulative IPC: 0.623247 (Simulation time: 2 hr 22 min 1 sec) 
Heartbeat CPU 0 instructions: 46000002 cycles: 64073335 heartbeat IPC: 0.63451 cumulative IPC: 0.623555 (Simulation time: 2 hr 25 min 6 sec) 
Heartbeat CPU 0 instructions: 47000001 cycles: 65678535 heartbeat IPC: 0.622975 cumulative IPC: 0.623539 (Simulation time: 2 hr 28 min 13 sec) 
Heartbeat CPU 0 instructions: 48000000 cycles: 67283263 heartbeat IPC: 0.623158 cumulative IPC: 0.623529 (Simulation time: 2 hr 31 min 29 sec) 
Heartbeat CPU 0 instructions: 49000000 cycles: 68862291 heartbeat IPC: 0.633301 cumulative IPC: 0.623776 (Simulation time: 2 hr 34 min 45 sec) 
Heartbeat CPU 0 instructions: 50000001 cycles: 70476289 heartbeat IPC: 0.61958 cumulative IPC: 0.62367 (Simulation time: 2 hr 38 min 7 sec) 
Heartbeat CPU 0 instructions: 51000002 cycles: 72093223 heartbeat IPC: 0.618455 cumulative IPC: 0.623542 (Simulation time: 2 hr 41 min 18 sec) 
Heartbeat CPU 0 instructions: 52000000 cycles: 73692286 heartbeat IPC: 0.625365 cumulative IPC: 0.623585 (Simulation time: 2 hr 44 min 31 sec) 
Heartbeat CPU 0 instructions: 53000000 cycles: 75327989 heartbeat IPC: 0.611358 cumulative IPC: 0.623295 (Simulation time: 2 hr 47 min 34 sec) 
Heartbeat CPU 0 instructions: 54000000 cycles: 76909048 heartbeat IPC: 0.632487 cumulative IPC: 0.623501 (Simulation time: 2 hr 51 min 1 sec) 
Heartbeat CPU 0 instructions: 55000002 cycles: 78485532 heartbeat IPC: 0.634324 cumulative IPC: 0.623738 (Simulation time: 2 hr 54 min 13 sec) 
Heartbeat CPU 0 instructions: 56000000 cycles: 80094675 heartbeat IPC: 0.621448 cumulative IPC: 0.623688 (Simulation time: 2 hr 57 min 24 sec) 
Heartbeat CPU 0 instructions: 57000000 cycles: 81737659 heartbeat IPC: 0.608649 cumulative IPC: 0.62336 (Simulation time: 3 hr 0 min 29 sec) 
Heartbeat CPU 0 instructions: 58000001 cycles: 83349968 heartbeat IPC: 0.620229 cumulative IPC: 0.623295 (Simulation time: 3 hr 3 min 37 sec) 
Heartbeat CPU 0 instructions: 59000002 cycles: 84957167 heartbeat IPC: 0.622201 cumulative IPC: 0.623272 (Simulation time: 3 hr 6 min 47 sec) 
Heartbeat CPU 0 instructions: 60000000 cycles: 86575868 heartbeat IPC: 0.617778 cumulative IPC: 0.623161 (Simulation time: 3 hr 10 min 9 sec) 
Heartbeat CPU 0 instructions: 61000001 cycles: 88154138 heartbeat IPC: 0.633606 cumulative IPC: 0.623363 (Simulation time: 3 hr 13 min 33 sec) 
Heartbeat CPU 0 instructions: 62000000 cycles: 89742348 heartbeat IPC: 0.629639 cumulative IPC: 0.623482 (Simulation time: 3 hr 17 min 3 sec) 
Heartbeat CPU 0 instructions: 63000003 cycles: 91352476 heartbeat IPC: 0.621071 cumulative IPC: 0.623437 (Simulation time: 3 hr 20 min 40 sec) 
Heartbeat CPU 0 instructions: 64000000 cycles: 92966713 heartbeat IPC: 0.619486 cumulative IPC: 0.623363 (Simulation time: 3 hr 24 min 4 sec) 
Heartbeat CPU 0 instructions: 65000003 cycles: 94587253 heartbeat IPC: 0.61708 cumulative IPC: 0.623248 (Simulation time: 3 hr 27 min 26 sec) 
Heartbeat CPU 0 instructions: 66000000 cycles: 96169914 heartbeat IPC: 0.631845 cumulative IPC: 0.623399 (Simulation time: 3 hr 30 min 52 sec) 
Heartbeat CPU 0 instructions: 67000000 cycles: 97765081 heartbeat IPC: 0.626894 cumulative IPC: 0.62346 (Simulation time: 3 hr 34 min 4 sec) 
Heartbeat CPU 0 instructions: 68000000 cycles: 99362331 heartbeat IPC: 0.626076 cumulative IPC: 0.623505 (Simulation time: 3 hr 37 min 22 sec) 
Heartbeat CPU 0 instructions: 69000003 cycles: 100936924 heartbeat IPC: 0.635087 cumulative IPC: 0.623698 (Simulation time: 3 hr 41 min 0 sec) 
Heartbeat CPU 0 instructions: 70000002 cycles: 102561707 heartbeat IPC: 0.615466 cumulative IPC: 0.623559 (Simulation time: 3 hr 44 min 32 sec) 
Heartbeat CPU 0 instructions: 71000002 cycles: 104210869 heartbeat IPC: 0.606369 cumulative IPC: 0.623269 (Simulation time: 3 hr 47 min 54 sec) 
Heartbeat CPU 0 instructions: 72000000 cycles: 105891996 heartbeat IPC: 0.594838 cumulative IPC: 0.622789 (Simulation time: 3 hr 51 min 32 sec) 
Heartbeat CPU 0 instructions: 73000000 cycles: 107575029 heartbeat IPC: 0.594165 cumulative IPC: 0.622313 (Simulation time: 3 hr 55 min 9 sec) 
Heartbeat CPU 0 instructions: 74000001 cycles: 109284847 heartbeat IPC: 0.584858 cumulative IPC: 0.621691 (Simulation time: 3 hr 58 min 34 sec) 
Heartbeat CPU 0 instructions: 75000003 cycles: 110980041 heartbeat IPC: 0.589904 cumulative IPC: 0.621176 (Simulation time: 4 hr 1 min 44 sec) 
Heartbeat CPU 0 instructions: 76000000 cycles: 112668899 heartbeat IPC: 0.592114 cumulative IPC: 0.620715 (Simulation time: 4 hr 5 min 4 sec) 
Heartbeat CPU 0 instructions: 77000000 cycles: 114370674 heartbeat IPC: 0.587622 cumulative IPC: 0.620193 (Simulation time: 4 hr 8 min 19 sec) 
Heartbeat CPU 0 instructions: 78000001 cycles: 116061199 heartbeat IPC: 0.591533 cumulative IPC: 0.619752 (Simulation time: 4 hr 11 min 44 sec) 
Heartbeat CPU 0 instructions: 79000003 cycles: 117769340 heartbeat IPC: 0.585433 cumulative IPC: 0.619226 (Simulation time: 4 hr 14 min 55 sec) 
Heartbeat CPU 0 instructions: 80000000 cycles: 119480243 heartbeat IPC: 0.584485 cumulative IPC: 0.6187 (Simulation time: 4 hr 18 min 6 sec) 
Heartbeat CPU 0 instructions: 81000001 cycles: 121198840 heartbeat IPC: 0.581871 cumulative IPC: 0.618149 (Simulation time: 4 hr 21 min 7 sec) 
Heartbeat CPU 0 instructions: 82000000 cycles: 122912196 heartbeat IPC: 0.583649 cumulative IPC: 0.617642 (Simulation time: 4 hr 23 min 58 sec) 
Heartbeat CPU 0 instructions: 83000001 cycles: 124612175 heartbeat IPC: 0.588243 cumulative IPC: 0.61722 (Simulation time: 4 hr 26 min 37 sec) 
Heartbeat CPU 0 instructions: 84000000 cycles: 126320317 heartbeat IPC: 0.585431 cumulative IPC: 0.616767 (Simulation time: 4 hr 29 min 2 sec) 
Heartbeat CPU 0 instructions: 85000000 cycles: 128020791 heartbeat IPC: 0.588071 cumulative IPC: 0.616366 (Simulation time: 4 hr 31 min 15 sec) 
Heartbeat CPU 0 instructions: 86000000 cycles: 129716213 heartbeat IPC: 0.589824 cumulative IPC: 0.616001 (Simulation time: 4 hr 33 min 25 sec) 
Heartbeat CPU 0 instructions: 87000001 cycles: 131415484 heartbeat IPC: 0.588488 cumulative IPC: 0.615627 (Simulation time: 4 hr 35 min 23 sec) 
Heartbeat CPU 0 instructions: 88000000 cycles: 133108701 heartbeat IPC: 0.590591 cumulative IPC: 0.615293 (Simulation time: 4 hr 37 min 35 sec) 
Heartbeat CPU 0 instructions: 89000003 cycles: 134800948 heartbeat IPC: 0.590932 cumulative IPC: 0.614972 (Simulation time: 4 hr 39 min 45 sec) 
Heartbeat CPU 0 instructions: 90000000 cycles: 136505734 heartbeat IPC: 0.586582 cumulative IPC: 0.6146 (Simulation time: 4 hr 41 min 53 sec) 
Heartbeat CPU 0 instructions: 91000001 cycles: 138206464 heartbeat IPC: 0.587983 cumulative IPC: 0.614257 (Simulation time: 4 hr 43 min 49 sec) 
Heartbeat CPU 0 instructions: 92000000 cycles: 139912685 heartbeat IPC: 0.58609 cumulative IPC: 0.613897 (Simulation time: 4 hr 45 min 36 sec) 
Heartbeat CPU 0 instructions: 93000003 cycles: 141609282 heartbeat IPC: 0.589417 cumulative IPC: 0.61359 (Simulation time: 4 hr 47 min 13 sec) 
Heartbeat CPU 0 instructions: 94000002 cycles: 143317381 heartbeat IPC: 0.585446 cumulative IPC: 0.613239 (Simulation time: 4 hr 48 min 48 sec) 
Heartbeat CPU 0 instructions: 95000000 cycles: 145027026 heartbeat IPC: 0.584916 cumulative IPC: 0.61289 (Simulation time: 4 hr 50 min 9 sec) 
Heartbeat CPU 0 instructions: 96000000 cycles: 146716870 heartbeat IPC: 0.591771 cumulative IPC: 0.612636 (Simulation time: 4 hr 51 min 23 sec) 
Heartbeat CPU 0 instructions: 97000003 cycles: 148411104 heartbeat IPC: 0.590239 cumulative IPC: 0.612369 (Simulation time: 4 hr 52 min 30 sec) 
Heartbeat CPU 0 instructions: 98000000 cycles: 150110119 heartbeat IPC: 0.588575 cumulative IPC: 0.612087 (Simulation time: 4 hr 53 min 24 sec) 
Heartbeat CPU 0 instructions: 99000001 cycles: 151815894 heartbeat IPC: 0.586244 cumulative IPC: 0.611784 (Simulation time: 4 hr 54 min 23 sec) 
Heartbeat CPU 0 instructions: 100000000 cycles: 153520816 heartbeat IPC: 0.586537 cumulative IPC: 0.611492 (Simulation time: 4 hr 55 min 15 sec) 
Heartbeat CPU 0 instructions: 101000001 cycles: 155211134 heartbeat IPC: 0.591605 cumulative IPC: 0.611266 (Simulation time: 4 hr 55 min 54 sec) 
Heartbeat CPU 0 instructions: 102000002 cycles: 156907733 heartbeat IPC: 0.589415 cumulative IPC: 0.61102 (Simulation time: 4 hr 56 min 29 sec) 
Heartbeat CPU 0 instructions: 103000000 cycles: 158603466 heartbeat IPC: 0.589714 cumulative IPC: 0.610783 (Simulation time: 4 hr 57 min 2 sec) 
Heartbeat CPU 0 instructions: 104000000 cycles: 160303904 heartbeat IPC: 0.588084 cumulative IPC: 0.610532 (Simulation time: 4 hr 57 min 36 sec) 
Heartbeat CPU 0 instructions: 105000000 cycles: 162005736 heartbeat IPC: 0.587602 cumulative IPC: 0.610281 (Simulation time: 4 hr 58 min 6 sec) 
Heartbeat CPU 0 instructions: 106000002 cycles: 163704390 heartbeat IPC: 0.588703 cumulative IPC: 0.610048 (Simulation time: 4 hr 58 min 32 sec) 
Heartbeat CPU 0 instructions: 107000000 cycles: 165424604 heartbeat IPC: 0.581322 cumulative IPC: 0.609738 (Simulation time: 4 hr 58 min 55 sec) 
Heartbeat CPU 0 instructions: 108000000 cycles: 167117763 heartbeat IPC: 0.590612 cumulative IPC: 0.609536 (Simulation time: 4 hr 59 min 17 sec) 
Heartbeat CPU 0 instructions: 109000003 cycles: 168820977 heartbeat IPC: 0.587127 cumulative IPC: 0.609301 (Simulation time: 4 hr 59 min 36 sec) 
Heartbeat CPU 0 instructions: 110000001 cycles: 170522075 heartbeat IPC: 0.587854 cumulative IPC: 0.609079 (Simulation time: 4 hr 59 min 57 sec) 
Finished CPU 0 instructions: 100000003 cycles: 164182246 cummulative IPC: 0.609079 (Simulation time: 4 hr 59 min 57 sec) 

ChampSim completed all CPUs

Region of Interest Statistics

CPU 0 cummulative IPC: 0.609079 instructions: 100000003 cycles: 164182246
LLC TOTAL     ACCESS:    5145119  HIT:     500401  MISS:    4644718
LLC LOAD      ACCESS:     520914  HIT:     127150  MISS:     393764
LLC RFO       ACCESS:         17  HIT:          0  MISS:         17
LLC PREFETCH  ACCESS:    3246889  HIT:     147437  MISS:    3099452
LLC WRITEBACK ACCESS:    1377299  HIT:     225814  MISS:    1151485
Insertion Distribution: 
	LOAD 132036 0 42078 236016 
	RFO 0 0 17 0 
	PREF 0 10851 427403 3021229 
	WRITEBACK 0 0 0 1262601 
Total Prefetch Downgrades: 10316
