
*** ChampSim Multicore Out-of-Order Simulator ***

Warmup Instructions: 10000000
Simulation Instructions: 100000000
Configuration: 2
Number of CPUs: 1
LLC sets: 2048
LLC ways: 16
Off-chip DRAM Channels: 1 Width: 64-bit Data Rate: 1600 MT/s

CPU 0 runs /datasets/cs240c-wi22-a00-public/data/Assignment2-gz/mcf_250B.trace.gz
CPU 0 L1D next line prefetcher
CPU 0 L2C IP-based stride prefetcher
Initialize SRRIP state
Heartbeat CPU 0 instructions: 1000000 cycles: 533112 heartbeat IPC: 1.87578 cumulative IPC: 1.87578 (Simulation time: 0 hr 3 min 15 sec) 
Heartbeat CPU 0 instructions: 2000003 cycles: 1045634 heartbeat IPC: 1.95114 cumulative IPC: 1.91272 (Simulation time: 0 hr 6 min 44 sec) 
Heartbeat CPU 0 instructions: 3000002 cycles: 1541482 heartbeat IPC: 2.01675 cumulative IPC: 1.94618 (Simulation time: 0 hr 9 min 55 sec) 
Heartbeat CPU 0 instructions: 4000000 cycles: 2051787 heartbeat IPC: 1.95961 cumulative IPC: 1.94952 (Simulation time: 0 hr 13 min 10 sec) 
Heartbeat CPU 0 instructions: 5000002 cycles: 2557049 heartbeat IPC: 1.97918 cumulative IPC: 1.95538 (Simulation time: 0 hr 16 min 28 sec) 
Heartbeat CPU 0 instructions: 6000002 cycles: 3061178 heartbeat IPC: 1.98362 cumulative IPC: 1.96003 (Simulation time: 0 hr 19 min 44 sec) 
Heartbeat CPU 0 instructions: 7000002 cycles: 3599813 heartbeat IPC: 1.85654 cumulative IPC: 1.94455 (Simulation time: 0 hr 23 min 1 sec) 
Heartbeat CPU 0 instructions: 8000000 cycles: 4113398 heartbeat IPC: 1.94709 cumulative IPC: 1.94486 (Simulation time: 0 hr 26 min 19 sec) 
Heartbeat CPU 0 instructions: 9000002 cycles: 4626332 heartbeat IPC: 1.94957 cumulative IPC: 1.94539 (Simulation time: 0 hr 29 min 36 sec) 
Heartbeat CPU 0 instructions: 10000000 cycles: 5136184 heartbeat IPC: 1.96135 cumulative IPC: 1.94697 (Simulation time: 0 hr 32 min 32 sec) 

Warmup complete CPU 0 instructions: 10000003 cycles: 5136185 (Simulation time: 0 hr 32 min 32 sec) 

Heartbeat CPU 0 instructions: 11000001 cycles: 12949043 heartbeat IPC: 0.127994 cumulative IPC: 0.127994 (Simulation time: 0 hr 36 min 48 sec) 
Heartbeat CPU 0 instructions: 12000000 cycles: 25789847 heartbeat IPC: 0.0778767 cumulative IPC: 0.096835 (Simulation time: 0 hr 42 min 26 sec) 
Heartbeat CPU 0 instructions: 13000001 cycles: 37245776 heartbeat IPC: 0.0872911 cumulative IPC: 0.09343 (Simulation time: 0 hr 47 min 51 sec) 
Heartbeat CPU 0 instructions: 14000003 cycles: 45334983 heartbeat IPC: 0.123622 cumulative IPC: 0.0995055 (Simulation time: 0 hr 52 min 7 sec) 
Heartbeat CPU 0 instructions: 15000002 cycles: 53049466 heartbeat IPC: 0.129626 cumulative IPC: 0.104355 (Simulation time: 0 hr 56 min 16 sec) 
Heartbeat CPU 0 instructions: 16000000 cycles: 60613703 heartbeat IPC: 0.132201 cumulative IPC: 0.108152 (Simulation time: 1 hr 0 min 33 sec) 
Heartbeat CPU 0 instructions: 17000000 cycles: 68387352 heartbeat IPC: 0.12864 cumulative IPC: 0.11067 (Simulation time: 1 hr 4 min 55 sec) 
Heartbeat CPU 0 instructions: 18000002 cycles: 75966191 heartbeat IPC: 0.131947 cumulative IPC: 0.112946 (Simulation time: 1 hr 9 min 2 sec) 
Heartbeat CPU 0 instructions: 19000000 cycles: 83630925 heartbeat IPC: 0.130467 cumulative IPC: 0.114657 (Simulation time: 1 hr 13 min 21 sec) 
Heartbeat CPU 0 instructions: 20000000 cycles: 91286833 heartbeat IPC: 0.130618 cumulative IPC: 0.116076 (Simulation time: 1 hr 17 min 39 sec) 
Heartbeat CPU 0 instructions: 21000000 cycles: 98563756 heartbeat IPC: 0.137421 cumulative IPC: 0.117738 (Simulation time: 1 hr 21 min 46 sec) 
Heartbeat CPU 0 instructions: 22000000 cycles: 105855037 heartbeat IPC: 0.13715 cumulative IPC: 0.119144 (Simulation time: 1 hr 25 min 53 sec) 
Heartbeat CPU 0 instructions: 23000003 cycles: 113360942 heartbeat IPC: 0.133229 cumulative IPC: 0.12012 (Simulation time: 1 hr 30 min 7 sec) 
Heartbeat CPU 0 instructions: 24000000 cycles: 120865383 heartbeat IPC: 0.133254 cumulative IPC: 0.120972 (Simulation time: 1 hr 34 min 28 sec) 
Heartbeat CPU 0 instructions: 25000002 cycles: 128743119 heartbeat IPC: 0.12694 cumulative IPC: 0.121352 (Simulation time: 1 hr 38 min 32 sec) 
Heartbeat CPU 0 instructions: 26000000 cycles: 136816187 heartbeat IPC: 0.123868 cumulative IPC: 0.121507 (Simulation time: 1 hr 42 min 49 sec) 
Heartbeat CPU 0 instructions: 27000003 cycles: 144818074 heartbeat IPC: 0.124971 cumulative IPC: 0.121705 (Simulation time: 1 hr 46 min 57 sec) 
Heartbeat CPU 0 instructions: 28000000 cycles: 152789399 heartbeat IPC: 0.125449 cumulative IPC: 0.121907 (Simulation time: 1 hr 51 min 26 sec) 
Heartbeat CPU 0 instructions: 29000000 cycles: 161226032 heartbeat IPC: 0.118531 cumulative IPC: 0.121725 (Simulation time: 1 hr 55 min 52 sec) 
Heartbeat CPU 0 instructions: 30000000 cycles: 169039149 heartbeat IPC: 0.12799 cumulative IPC: 0.122023 (Simulation time: 2 hr 0 min 6 sec) 
Heartbeat CPU 0 instructions: 31000000 cycles: 176903622 heartbeat IPC: 0.127154 cumulative IPC: 0.122258 (Simulation time: 2 hr 4 min 24 sec) 
Heartbeat CPU 0 instructions: 32000000 cycles: 184559985 heartbeat IPC: 0.13061 cumulative IPC: 0.122615 (Simulation time: 2 hr 8 min 26 sec) 
Heartbeat CPU 0 instructions: 33000000 cycles: 192734320 heartbeat IPC: 0.122334 cumulative IPC: 0.122602 (Simulation time: 2 hr 12 min 44 sec) 
Heartbeat CPU 0 instructions: 34000000 cycles: 200609544 heartbeat IPC: 0.126981 cumulative IPC: 0.122779 (Simulation time: 2 hr 16 min 56 sec) 
Heartbeat CPU 0 instructions: 35000000 cycles: 211032348 heartbeat IPC: 0.0959435 cumulative IPC: 0.12142 (Simulation time: 2 hr 21 min 45 sec) 
Heartbeat CPU 0 instructions: 36000000 cycles: 224396863 heartbeat IPC: 0.074825 cumulative IPC: 0.11858 (Simulation time: 2 hr 27 min 10 sec) 
Heartbeat CPU 0 instructions: 37000002 cycles: 232475436 heartbeat IPC: 0.123784 cumulative IPC: 0.118765 (Simulation time: 2 hr 31 min 19 sec) 
Heartbeat CPU 0 instructions: 38000000 cycles: 240439630 heartbeat IPC: 0.125562 cumulative IPC: 0.118995 (Simulation time: 2 hr 35 min 13 sec) 
Heartbeat CPU 0 instructions: 39000000 cycles: 248239966 heartbeat IPC: 0.1282 cumulative IPC: 0.119291 (Simulation time: 2 hr 39 min 26 sec) 
Heartbeat CPU 0 instructions: 40000000 cycles: 256127361 heartbeat IPC: 0.126785 cumulative IPC: 0.119526 (Simulation time: 2 hr 43 min 23 sec) 
Heartbeat CPU 0 instructions: 41000000 cycles: 263999907 heartbeat IPC: 0.127024 cumulative IPC: 0.119754 (Simulation time: 2 hr 47 min 47 sec) 
Heartbeat CPU 0 instructions: 42000000 cycles: 272133951 heartbeat IPC: 0.12294 cumulative IPC: 0.119851 (Simulation time: 2 hr 52 min 19 sec) 
Heartbeat CPU 0 instructions: 43000000 cycles: 279975189 heartbeat IPC: 0.127531 cumulative IPC: 0.12007 (Simulation time: 2 hr 56 min 29 sec) 
Heartbeat CPU 0 instructions: 44000000 cycles: 287976713 heartbeat IPC: 0.124976 cumulative IPC: 0.120209 (Simulation time: 3 hr 0 min 17 sec) 
Heartbeat CPU 0 instructions: 45000001 cycles: 295845661 heartbeat IPC: 0.127082 cumulative IPC: 0.120395 (Simulation time: 3 hr 4 min 22 sec) 
Heartbeat CPU 0 instructions: 46000000 cycles: 303557477 heartbeat IPC: 0.129671 cumulative IPC: 0.120635 (Simulation time: 3 hr 8 min 21 sec) 
Heartbeat CPU 0 instructions: 47000002 cycles: 311338683 heartbeat IPC: 0.128515 cumulative IPC: 0.120835 (Simulation time: 3 hr 12 min 19 sec) 
Heartbeat CPU 0 instructions: 48000000 cycles: 318828659 heartbeat IPC: 0.133512 cumulative IPC: 0.121138 (Simulation time: 3 hr 16 min 12 sec) 
Heartbeat CPU 0 instructions: 49000000 cycles: 326723336 heartbeat IPC: 0.126668 cumulative IPC: 0.121273 (Simulation time: 3 hr 20 min 34 sec) 
Heartbeat CPU 0 instructions: 50000002 cycles: 334460504 heartbeat IPC: 0.129247 cumulative IPC: 0.121461 (Simulation time: 3 hr 24 min 58 sec) 
Heartbeat CPU 0 instructions: 51000002 cycles: 342391400 heartbeat IPC: 0.126089 cumulative IPC: 0.12157 (Simulation time: 3 hr 29 min 20 sec) 
Heartbeat CPU 0 instructions: 52000000 cycles: 350288204 heartbeat IPC: 0.126633 cumulative IPC: 0.121686 (Simulation time: 3 hr 33 min 37 sec) 
Heartbeat CPU 0 instructions: 53000000 cycles: 358040361 heartbeat IPC: 0.128996 cumulative IPC: 0.121846 (Simulation time: 3 hr 37 min 44 sec) 
Heartbeat CPU 0 instructions: 54000000 cycles: 365683668 heartbeat IPC: 0.130833 cumulative IPC: 0.122037 (Simulation time: 3 hr 42 min 5 sec) 
Heartbeat CPU 0 instructions: 55000000 cycles: 373475626 heartbeat IPC: 0.128337 cumulative IPC: 0.12217 (Simulation time: 3 hr 46 min 9 sec) 
Heartbeat CPU 0 instructions: 56000000 cycles: 381411231 heartbeat IPC: 0.126014 cumulative IPC: 0.122251 (Simulation time: 3 hr 50 min 21 sec) 
Heartbeat CPU 0 instructions: 57000000 cycles: 389346793 heartbeat IPC: 0.126015 cumulative IPC: 0.122329 (Simulation time: 3 hr 54 min 18 sec) 
Heartbeat CPU 0 instructions: 58000000 cycles: 397205633 heartbeat IPC: 0.127245 cumulative IPC: 0.122427 (Simulation time: 3 hr 58 min 42 sec) 
Heartbeat CPU 0 instructions: 59000001 cycles: 404830601 heartbeat IPC: 0.131148 cumulative IPC: 0.122594 (Simulation time: 4 hr 2 min 44 sec) 
Heartbeat CPU 0 instructions: 60000000 cycles: 412394376 heartbeat IPC: 0.132209 cumulative IPC: 0.122772 (Simulation time: 4 hr 6 min 41 sec) 
Heartbeat CPU 0 instructions: 61000001 cycles: 420064043 heartbeat IPC: 0.130384 cumulative IPC: 0.122913 (Simulation time: 4 hr 10 min 32 sec) 
Heartbeat CPU 0 instructions: 62000000 cycles: 426472106 heartbeat IPC: 0.156053 cumulative IPC: 0.123417 (Simulation time: 4 hr 14 min 13 sec) 
Heartbeat CPU 0 instructions: 63000001 cycles: 433997755 heartbeat IPC: 0.132879 cumulative IPC: 0.123583 (Simulation time: 4 hr 17 min 55 sec) 
Heartbeat CPU 0 instructions: 64000000 cycles: 441551022 heartbeat IPC: 0.132393 cumulative IPC: 0.123735 (Simulation time: 4 hr 21 min 41 sec) 
Heartbeat CPU 0 instructions: 65000000 cycles: 448565343 heartbeat IPC: 0.142565 cumulative IPC: 0.124033 (Simulation time: 4 hr 24 min 59 sec) 
Heartbeat CPU 0 instructions: 66000000 cycles: 456249315 heartbeat IPC: 0.130141 cumulative IPC: 0.124137 (Simulation time: 4 hr 28 min 4 sec) 
Heartbeat CPU 0 instructions: 67000000 cycles: 464067973 heartbeat IPC: 0.127899 cumulative IPC: 0.124201 (Simulation time: 4 hr 30 min 52 sec) 
Heartbeat CPU 0 instructions: 68000000 cycles: 471728899 heartbeat IPC: 0.130533 cumulative IPC: 0.124305 (Simulation time: 4 hr 33 min 30 sec) 
Heartbeat CPU 0 instructions: 69000000 cycles: 479483908 heartbeat IPC: 0.128949 cumulative IPC: 0.124381 (Simulation time: 4 hr 36 min 1 sec) 
Heartbeat CPU 0 instructions: 70000000 cycles: 487129011 heartbeat IPC: 0.130803 cumulative IPC: 0.124483 (Simulation time: 4 hr 38 min 23 sec) 
Heartbeat CPU 0 instructions: 71000000 cycles: 494642677 heartbeat IPC: 0.133091 cumulative IPC: 0.124615 (Simulation time: 4 hr 40 min 39 sec) 
Heartbeat CPU 0 instructions: 72000000 cycles: 502278058 heartbeat IPC: 0.130969 cumulative IPC: 0.124713 (Simulation time: 4 hr 42 min 43 sec) 
Heartbeat CPU 0 instructions: 73000001 cycles: 509941762 heartbeat IPC: 0.130485 cumulative IPC: 0.124801 (Simulation time: 4 hr 44 min 40 sec) 
Heartbeat CPU 0 instructions: 74000001 cycles: 517577261 heartbeat IPC: 0.130967 cumulative IPC: 0.124892 (Simulation time: 4 hr 46 min 28 sec) 
Heartbeat CPU 0 instructions: 75000002 cycles: 525085639 heartbeat IPC: 0.133185 cumulative IPC: 0.125012 (Simulation time: 4 hr 48 min 1 sec) 
Heartbeat CPU 0 instructions: 76000000 cycles: 532783452 heartbeat IPC: 0.129907 cumulative IPC: 0.125084 (Simulation time: 4 hr 49 min 31 sec) 
Heartbeat CPU 0 instructions: 77000003 cycles: 547276752 heartbeat IPC: 0.0689976 cumulative IPC: 0.123584 (Simulation time: 4 hr 51 min 15 sec) 
Heartbeat CPU 0 instructions: 78000000 cycles: 556743108 heartbeat IPC: 0.105637 cumulative IPC: 0.123276 (Simulation time: 4 hr 52 min 28 sec) 
Heartbeat CPU 0 instructions: 79000000 cycles: 564197118 heartbeat IPC: 0.134156 cumulative IPC: 0.123421 (Simulation time: 4 hr 53 min 23 sec) 
Heartbeat CPU 0 instructions: 80000000 cycles: 571783596 heartbeat IPC: 0.131813 cumulative IPC: 0.123534 (Simulation time: 4 hr 54 min 18 sec) 
Heartbeat CPU 0 instructions: 81000001 cycles: 579189730 heartbeat IPC: 0.135023 cumulative IPC: 0.123682 (Simulation time: 4 hr 55 min 7 sec) 
Heartbeat CPU 0 instructions: 82000001 cycles: 586019965 heartbeat IPC: 0.146408 cumulative IPC: 0.123949 (Simulation time: 4 hr 55 min 50 sec) 
Heartbeat CPU 0 instructions: 83000002 cycles: 592306396 heartbeat IPC: 0.159073 cumulative IPC: 0.124325 (Simulation time: 4 hr 56 min 27 sec) 
Heartbeat CPU 0 instructions: 84000000 cycles: 598588862 heartbeat IPC: 0.159173 cumulative IPC: 0.124694 (Simulation time: 4 hr 56 min 56 sec) 
Heartbeat CPU 0 instructions: 85000000 cycles: 605255289 heartbeat IPC: 0.150005 cumulative IPC: 0.124975 (Simulation time: 4 hr 57 min 27 sec) 
Heartbeat CPU 0 instructions: 86000001 cycles: 611717247 heartbeat IPC: 0.154752 cumulative IPC: 0.125292 (Simulation time: 4 hr 57 min 54 sec) 
Heartbeat CPU 0 instructions: 87000001 cycles: 625047577 heartbeat IPC: 0.0750169 cumulative IPC: 0.124211 (Simulation time: 4 hr 58 min 28 sec) 
Heartbeat CPU 0 instructions: 88000000 cycles: 634540773 heartbeat IPC: 0.105338 cumulative IPC: 0.123927 (Simulation time: 4 hr 58 min 54 sec) 
Heartbeat CPU 0 instructions: 89000001 cycles: 641536659 heartbeat IPC: 0.142941 cumulative IPC: 0.124136 (Simulation time: 4 hr 59 min 15 sec) 
Heartbeat CPU 0 instructions: 90000001 cycles: 647478775 heartbeat IPC: 0.16829 cumulative IPC: 0.124544 (Simulation time: 4 hr 59 min 35 sec) 
Heartbeat CPU 0 instructions: 91000000 cycles: 656782342 heartbeat IPC: 0.107486 cumulative IPC: 0.124301 (Simulation time: 4 hr 59 min 56 sec) 
Heartbeat CPU 0 instructions: 92000000 cycles: 664195232 heartbeat IPC: 0.1349 cumulative IPC: 0.12442 (Simulation time: 5 hr 0 min 13 sec) 
Heartbeat CPU 0 instructions: 93000000 cycles: 672072936 heartbeat IPC: 0.126941 cumulative IPC: 0.12445 (Simulation time: 5 hr 0 min 30 sec) 
Heartbeat CPU 0 instructions: 94000000 cycles: 679983883 heartbeat IPC: 0.126407 cumulative IPC: 0.124473 (Simulation time: 5 hr 0 min 43 sec) 
Heartbeat CPU 0 instructions: 95000000 cycles: 687851453 heartbeat IPC: 0.127104 cumulative IPC: 0.124503 (Simulation time: 5 hr 0 min 55 sec) 
Heartbeat CPU 0 instructions: 96000000 cycles: 695921565 heartbeat IPC: 0.123914 cumulative IPC: 0.124496 (Simulation time: 5 hr 1 min 7 sec) 
Heartbeat CPU 0 instructions: 97000000 cycles: 703647907 heartbeat IPC: 0.129427 cumulative IPC: 0.124551 (Simulation time: 5 hr 1 min 17 sec) 
Heartbeat CPU 0 instructions: 98000000 cycles: 711289064 heartbeat IPC: 0.13087 cumulative IPC: 0.124619 (Simulation time: 5 hr 1 min 27 sec) 
Heartbeat CPU 0 instructions: 99000000 cycles: 718939334 heartbeat IPC: 0.130714 cumulative IPC: 0.124684 (Simulation time: 5 hr 1 min 35 sec) 
Heartbeat CPU 0 instructions: 100000000 cycles: 726565947 heartbeat IPC: 0.13112 cumulative IPC: 0.124752 (Simulation time: 5 hr 1 min 44 sec) 
Heartbeat CPU 0 instructions: 101000002 cycles: 734566430 heartbeat IPC: 0.124993 cumulative IPC: 0.124755 (Simulation time: 5 hr 1 min 53 sec) 
Heartbeat CPU 0 instructions: 102000002 cycles: 742376268 heartbeat IPC: 0.128044 cumulative IPC: 0.12479 (Simulation time: 5 hr 2 min 1 sec) 
Heartbeat CPU 0 instructions: 103000000 cycles: 750493022 heartbeat IPC: 0.123202 cumulative IPC: 0.124772 (Simulation time: 5 hr 2 min 9 sec) 
Heartbeat CPU 0 instructions: 104000000 cycles: 758338497 heartbeat IPC: 0.127462 cumulative IPC: 0.1248 (Simulation time: 5 hr 2 min 17 sec) 
Heartbeat CPU 0 instructions: 105000000 cycles: 765994697 heartbeat IPC: 0.130613 cumulative IPC: 0.124859 (Simulation time: 5 hr 2 min 24 sec) 
Heartbeat CPU 0 instructions: 106000003 cycles: 773721520 heartbeat IPC: 0.12942 cumulative IPC: 0.124905 (Simulation time: 5 hr 2 min 31 sec) 
Heartbeat CPU 0 instructions: 107000003 cycles: 781376426 heartbeat IPC: 0.130635 cumulative IPC: 0.124961 (Simulation time: 5 hr 2 min 38 sec) 
Heartbeat CPU 0 instructions: 108000000 cycles: 789094361 heartbeat IPC: 0.129568 cumulative IPC: 0.125007 (Simulation time: 5 hr 2 min 46 sec) 
Heartbeat CPU 0 instructions: 109000000 cycles: 796646162 heartbeat IPC: 0.132419 cumulative IPC: 0.125077 (Simulation time: 5 hr 2 min 53 sec) 
Heartbeat CPU 0 instructions: 110000000 cycles: 804235885 heartbeat IPC: 0.131757 cumulative IPC: 0.125141 (Simulation time: 5 hr 3 min 0 sec) 
Finished CPU 0 instructions: 100000000 cycles: 799099702 cummulative IPC: 0.125141 (Simulation time: 5 hr 3 min 0 sec) 

ChampSim completed all CPUs

Region of Interest Statistics

CPU 0 cummulative IPC: 0.125141 instructions: 100000000 cycles: 799099702
LLC TOTAL     ACCESS:   26961157  HIT:   14207196  MISS:   12753961
LLC LOAD      ACCESS:   11718033  HIT:    9936825  MISS:    1781208
LLC RFO       ACCESS:      27347  HIT:       9416  MISS:      17931
LLC PREFETCH  ACCESS:   14882028  HIT:    3983593  MISS:   10898435
LLC WRITEBACK ACCESS:     333749  HIT:     277362  MISS:      56387
Insertion Distribution: 
	LOAD 594855 0 621532 784639 
	RFO 9710 0 10208 2500 
	PREF 0 1228166 4956698 5757902 
	WRITEBACK 0 0 0 92403 
Total Prefetch Downgrades: 2205937
