
*** ChampSim Multicore Out-of-Order Simulator ***

Warmup Instructions: 10000000
Simulation Instructions: 100000000
Configuration: 2
Number of CPUs: 1
LLC sets: 2048
LLC ways: 16
Off-chip DRAM Channels: 1 Width: 64-bit Data Rate: 1600 MT/s

CPU 0 runs /datasets/cs240c-wi22-a00-public/data/Assignment2-gz/leslie3d_1186B.trace.gz
CPU 0 L1D next line prefetcher
CPU 0 L2C IP-based stride prefetcher
Initialize SRRIP state
Heartbeat CPU 0 instructions: 1000002 cycles: 564509 heartbeat IPC: 1.77145 cumulative IPC: 1.77145 (Simulation time: 0 hr 3 min 3 sec) 
Heartbeat CPU 0 instructions: 2000000 cycles: 1215815 heartbeat IPC: 1.53537 cumulative IPC: 1.64499 (Simulation time: 0 hr 6 min 8 sec) 
Heartbeat CPU 0 instructions: 3000000 cycles: 1867529 heartbeat IPC: 1.53442 cumulative IPC: 1.6064 (Simulation time: 0 hr 9 min 8 sec) 
Heartbeat CPU 0 instructions: 4000000 cycles: 2473057 heartbeat IPC: 1.65145 cumulative IPC: 1.61743 (Simulation time: 0 hr 12 min 3 sec) 
Heartbeat CPU 0 instructions: 5000000 cycles: 3083365 heartbeat IPC: 1.63852 cumulative IPC: 1.6216 (Simulation time: 0 hr 15 min 5 sec) 
Heartbeat CPU 0 instructions: 6000000 cycles: 3735076 heartbeat IPC: 1.53442 cumulative IPC: 1.60639 (Simulation time: 0 hr 18 min 21 sec) 
Heartbeat CPU 0 instructions: 7000001 cycles: 4386302 heartbeat IPC: 1.53557 cumulative IPC: 1.59588 (Simulation time: 0 hr 21 min 33 sec) 
Heartbeat CPU 0 instructions: 8000000 cycles: 4950880 heartbeat IPC: 1.77123 cumulative IPC: 1.61587 (Simulation time: 0 hr 24 min 34 sec) 
Heartbeat CPU 0 instructions: 9000003 cycles: 5602157 heartbeat IPC: 1.53545 cumulative IPC: 1.60652 (Simulation time: 0 hr 27 min 31 sec) 
Heartbeat CPU 0 instructions: 10000001 cycles: 6253306 heartbeat IPC: 1.53574 cumulative IPC: 1.59915 (Simulation time: 0 hr 30 min 17 sec) 

Warmup complete CPU 0 instructions: 10000001 cycles: 6253306 (Simulation time: 0 hr 30 min 17 sec) 

Heartbeat CPU 0 instructions: 11000001 cycles: 7689021 heartbeat IPC: 0.696517 cumulative IPC: 0.696517 (Simulation time: 0 hr 33 min 8 sec) 
Heartbeat CPU 0 instructions: 12000000 cycles: 8930714 heartbeat IPC: 0.805351 cumulative IPC: 0.746991 (Simulation time: 0 hr 36 min 6 sec) 
Heartbeat CPU 0 instructions: 13000000 cycles: 10131871 heartbeat IPC: 0.832531 cumulative IPC: 0.773482 (Simulation time: 0 hr 38 min 48 sec) 
Heartbeat CPU 0 instructions: 14000000 cycles: 11368836 heartbeat IPC: 0.80843 cumulative IPC: 0.781932 (Simulation time: 0 hr 41 min 51 sec) 
Heartbeat CPU 0 instructions: 15000002 cycles: 12791297 heartbeat IPC: 0.703008 cumulative IPC: 0.764761 (Simulation time: 0 hr 44 min 48 sec) 
Heartbeat CPU 0 instructions: 16000000 cycles: 13971602 heartbeat IPC: 0.847237 cumulative IPC: 0.777374 (Simulation time: 0 hr 47 min 58 sec) 
Heartbeat CPU 0 instructions: 17000000 cycles: 15166114 heartbeat IPC: 0.837162 cumulative IPC: 0.785387 (Simulation time: 0 hr 51 min 2 sec) 
Heartbeat CPU 0 instructions: 18000001 cycles: 16609244 heartbeat IPC: 0.692939 cumulative IPC: 0.772504 (Simulation time: 0 hr 53 min 54 sec) 
Heartbeat CPU 0 instructions: 19000003 cycles: 17829399 heartbeat IPC: 0.81957 cumulative IPC: 0.777465 (Simulation time: 0 hr 56 min 43 sec) 
Heartbeat CPU 0 instructions: 20000000 cycles: 19024688 heartbeat IPC: 0.836615 cumulative IPC: 0.783001 (Simulation time: 0 hr 59 min 39 sec) 
Heartbeat CPU 0 instructions: 21000003 cycles: 20317479 heartbeat IPC: 0.773523 cumulative IPC: 0.782129 (Simulation time: 1 hr 2 min 32 sec) 
Heartbeat CPU 0 instructions: 22000003 cycles: 21633434 heartbeat IPC: 0.759904 cumulative IPC: 0.780228 (Simulation time: 1 hr 5 min 30 sec) 
Heartbeat CPU 0 instructions: 23000002 cycles: 22799114 heartbeat IPC: 0.857868 cumulative IPC: 0.785698 (Simulation time: 1 hr 8 min 36 sec) 
Heartbeat CPU 0 instructions: 24000000 cycles: 23963781 heartbeat IPC: 0.858613 cumulative IPC: 0.790493 (Simulation time: 1 hr 11 min 43 sec) 
Heartbeat CPU 0 instructions: 25000000 cycles: 25377379 heartbeat IPC: 0.707415 cumulative IPC: 0.784352 (Simulation time: 1 hr 14 min 40 sec) 
Heartbeat CPU 0 instructions: 26000000 cycles: 26565644 heartbeat IPC: 0.841563 cumulative IPC: 0.787699 (Simulation time: 1 hr 17 min 35 sec) 
Heartbeat CPU 0 instructions: 27000000 cycles: 27746442 heartbeat IPC: 0.846885 cumulative IPC: 0.79095 (Simulation time: 1 hr 20 min 35 sec) 
Heartbeat CPU 0 instructions: 28000000 cycles: 29138363 heartbeat IPC: 0.718432 cumulative IPC: 0.786539 (Simulation time: 1 hr 23 min 38 sec) 
Heartbeat CPU 0 instructions: 29000002 cycles: 30348123 heartbeat IPC: 0.826612 cumulative IPC: 0.788551 (Simulation time: 1 hr 26 min 41 sec) 
Heartbeat CPU 0 instructions: 30000002 cycles: 31529793 heartbeat IPC: 0.84626 cumulative IPC: 0.791249 (Simulation time: 1 hr 29 min 45 sec) 
Heartbeat CPU 0 instructions: 31000002 cycles: 32740085 heartbeat IPC: 0.826247 cumulative IPC: 0.792848 (Simulation time: 1 hr 32 min 43 sec) 
Heartbeat CPU 0 instructions: 32000000 cycles: 34113132 heartbeat IPC: 0.728306 cumulative IPC: 0.789667 (Simulation time: 1 hr 35 min 20 sec) 
Heartbeat CPU 0 instructions: 33000000 cycles: 35290129 heartbeat IPC: 0.84962 cumulative IPC: 0.792098 (Simulation time: 1 hr 38 min 9 sec) 
Heartbeat CPU 0 instructions: 34000000 cycles: 36467409 heartbeat IPC: 0.849416 cumulative IPC: 0.794331 (Simulation time: 1 hr 41 min 2 sec) 
Heartbeat CPU 0 instructions: 35000002 cycles: 37876779 heartbeat IPC: 0.709538 cumulative IPC: 0.790552 (Simulation time: 1 hr 43 min 42 sec) 
Heartbeat CPU 0 instructions: 36000000 cycles: 39071505 heartbeat IPC: 0.83701 cumulative IPC: 0.792243 (Simulation time: 1 hr 46 min 41 sec) 
Heartbeat CPU 0 instructions: 37000003 cycles: 40265566 heartbeat IPC: 0.837481 cumulative IPC: 0.793831 (Simulation time: 1 hr 49 min 49 sec) 
Heartbeat CPU 0 instructions: 38000003 cycles: 41579338 heartbeat IPC: 0.761167 cumulative IPC: 0.792617 (Simulation time: 1 hr 52 min 56 sec) 
Heartbeat CPU 0 instructions: 39000001 cycles: 42855349 heartbeat IPC: 0.783691 cumulative IPC: 0.792306 (Simulation time: 1 hr 56 min 19 sec) 
Heartbeat CPU 0 instructions: 40000000 cycles: 44043205 heartbeat IPC: 0.841852 cumulative IPC: 0.793863 (Simulation time: 1 hr 59 min 25 sec) 
Heartbeat CPU 0 instructions: 41000000 cycles: 45215120 heartbeat IPC: 0.853304 cumulative IPC: 0.795651 (Simulation time: 2 hr 2 min 28 sec) 
Heartbeat CPU 0 instructions: 42000000 cycles: 46621994 heartbeat IPC: 0.710796 cumulative IPC: 0.792694 (Simulation time: 2 hr 5 min 25 sec) 
Heartbeat CPU 0 instructions: 43000002 cycles: 47781673 heartbeat IPC: 0.862309 cumulative IPC: 0.794638 (Simulation time: 2 hr 8 min 25 sec) 
Heartbeat CPU 0 instructions: 44000000 cycles: 48962033 heartbeat IPC: 0.847197 cumulative IPC: 0.79609 (Simulation time: 2 hr 11 min 25 sec) 
Heartbeat CPU 0 instructions: 45000001 cycles: 50431933 heartbeat IPC: 0.680319 cumulative IPC: 0.792238 (Simulation time: 2 hr 14 min 28 sec) 
Heartbeat CPU 0 instructions: 46000001 cycles: 52081134 heartbeat IPC: 0.606354 cumulative IPC: 0.785549 (Simulation time: 2 hr 17 min 45 sec) 
Heartbeat CPU 0 instructions: 47000002 cycles: 53834703 heartbeat IPC: 0.570266 cumulative IPC: 0.777615 (Simulation time: 2 hr 20 min 55 sec) 
Heartbeat CPU 0 instructions: 48000000 cycles: 55609436 heartbeat IPC: 0.563464 cumulative IPC: 0.769914 (Simulation time: 2 hr 23 min 57 sec) 
Heartbeat CPU 0 instructions: 49000002 cycles: 57411576 heartbeat IPC: 0.554897 cumulative IPC: 0.76234 (Simulation time: 2 hr 27 min 17 sec) 
Heartbeat CPU 0 instructions: 50000002 cycles: 59115106 heartbeat IPC: 0.587016 cumulative IPC: 0.75669 (Simulation time: 2 hr 30 min 24 sec) 
Heartbeat CPU 0 instructions: 51000000 cycles: 60819233 heartbeat IPC: 0.58681 cumulative IPC: 0.751385 (Simulation time: 2 hr 33 min 40 sec) 
Heartbeat CPU 0 instructions: 52000000 cycles: 62597329 heartbeat IPC: 0.562399 cumulative IPC: 0.745421 (Simulation time: 2 hr 37 min 3 sec) 
Heartbeat CPU 0 instructions: 53000003 cycles: 64393196 heartbeat IPC: 0.556836 cumulative IPC: 0.739596 (Simulation time: 2 hr 40 min 20 sec) 
Heartbeat CPU 0 instructions: 54000003 cycles: 66130488 heartbeat IPC: 0.575608 cumulative IPC: 0.734838 (Simulation time: 2 hr 43 min 40 sec) 
Heartbeat CPU 0 instructions: 55000001 cycles: 68021909 heartbeat IPC: 0.528702 cumulative IPC: 0.728525 (Simulation time: 2 hr 47 min 3 sec) 
Heartbeat CPU 0 instructions: 56000000 cycles: 70370131 heartbeat IPC: 0.425854 cumulative IPC: 0.71744 (Simulation time: 2 hr 50 min 37 sec) 
Heartbeat CPU 0 instructions: 57000001 cycles: 72718734 heartbeat IPC: 0.425785 cumulative IPC: 0.707135 (Simulation time: 2 hr 53 min 59 sec) 
Heartbeat CPU 0 instructions: 58000001 cycles: 75030833 heartbeat IPC: 0.432507 cumulative IPC: 0.697902 (Simulation time: 2 hr 57 min 19 sec) 
Heartbeat CPU 0 instructions: 59000003 cycles: 77370425 heartbeat IPC: 0.427426 cumulative IPC: 0.689004 (Simulation time: 3 hr 0 min 45 sec) 
Heartbeat CPU 0 instructions: 60000000 cycles: 79708658 heartbeat IPC: 0.427672 cumulative IPC: 0.680686 (Simulation time: 3 hr 4 min 53 sec) 
Heartbeat CPU 0 instructions: 61000003 cycles: 82020098 heartbeat IPC: 0.432632 cumulative IPC: 0.673118 (Simulation time: 3 hr 8 min 49 sec) 
Heartbeat CPU 0 instructions: 62000001 cycles: 84337372 heartbeat IPC: 0.431541 cumulative IPC: 0.665949 (Simulation time: 3 hr 12 min 39 sec) 
Heartbeat CPU 0 instructions: 63000000 cycles: 86307933 heartbeat IPC: 0.507469 cumulative IPC: 0.662048 (Simulation time: 3 hr 16 min 3 sec) 
Heartbeat CPU 0 instructions: 64000000 cycles: 87529231 heartbeat IPC: 0.818801 cumulative IPC: 0.664403 (Simulation time: 3 hr 19 min 10 sec) 
Heartbeat CPU 0 instructions: 65000000 cycles: 88783104 heartbeat IPC: 0.797529 cumulative IPC: 0.666426 (Simulation time: 3 hr 22 min 6 sec) 
Heartbeat CPU 0 instructions: 66000002 cycles: 90042202 heartbeat IPC: 0.794221 cumulative IPC: 0.668346 (Simulation time: 3 hr 25 min 0 sec) 
Heartbeat CPU 0 instructions: 67000001 cycles: 91296204 heartbeat IPC: 0.797446 cumulative IPC: 0.67025 (Simulation time: 3 hr 28 min 0 sec) 
Heartbeat CPU 0 instructions: 68000000 cycles: 92616040 heartbeat IPC: 0.757669 cumulative IPC: 0.671586 (Simulation time: 3 hr 30 min 52 sec) 
Heartbeat CPU 0 instructions: 69000000 cycles: 93863920 heartbeat IPC: 0.801359 cumulative IPC: 0.673434 (Simulation time: 3 hr 33 min 55 sec) 
Heartbeat CPU 0 instructions: 70000000 cycles: 95154124 heartbeat IPC: 0.775071 cumulative IPC: 0.674909 (Simulation time: 3 hr 36 min 58 sec) 
Heartbeat CPU 0 instructions: 71000000 cycles: 96411650 heartbeat IPC: 0.795212 cumulative IPC: 0.676587 (Simulation time: 3 hr 40 min 0 sec) 
Heartbeat CPU 0 instructions: 72000000 cycles: 97691645 heartbeat IPC: 0.781253 cumulative IPC: 0.678053 (Simulation time: 3 hr 42 min 50 sec) 
Heartbeat CPU 0 instructions: 73000000 cycles: 98974926 heartbeat IPC: 0.779253 cumulative IPC: 0.679453 (Simulation time: 3 hr 45 min 45 sec) 
Heartbeat CPU 0 instructions: 74000000 cycles: 100228062 heartbeat IPC: 0.797998 cumulative IPC: 0.681034 (Simulation time: 3 hr 49 min 4 sec) 
Heartbeat CPU 0 instructions: 75000003 cycles: 101529018 heartbeat IPC: 0.768668 cumulative IPC: 0.682231 (Simulation time: 3 hr 52 min 0 sec) 
Heartbeat CPU 0 instructions: 76000000 cycles: 102784136 heartbeat IPC: 0.796735 cumulative IPC: 0.683719 (Simulation time: 3 hr 54 min 43 sec) 
Heartbeat CPU 0 instructions: 77000000 cycles: 104081555 heartbeat IPC: 0.770761 cumulative IPC: 0.684874 (Simulation time: 3 hr 57 min 56 sec) 
Heartbeat CPU 0 instructions: 78000001 cycles: 105357667 heartbeat IPC: 0.783631 cumulative IPC: 0.686145 (Simulation time: 4 hr 0 min 45 sec) 
Heartbeat CPU 0 instructions: 79000002 cycles: 106655098 heartbeat IPC: 0.770755 cumulative IPC: 0.687239 (Simulation time: 4 hr 3 min 34 sec) 
Heartbeat CPU 0 instructions: 80000000 cycles: 107947780 heartbeat IPC: 0.773584 cumulative IPC: 0.688336 (Simulation time: 4 hr 6 min 21 sec) 
Heartbeat CPU 0 instructions: 81000000 cycles: 109212640 heartbeat IPC: 0.790601 cumulative IPC: 0.689593 (Simulation time: 4 hr 9 min 10 sec) 
Heartbeat CPU 0 instructions: 82000003 cycles: 110511632 heartbeat IPC: 0.76983 cumulative IPC: 0.690592 (Simulation time: 4 hr 12 min 2 sec) 
Heartbeat CPU 0 instructions: 83000001 cycles: 111792797 heartbeat IPC: 0.780538 cumulative IPC: 0.691684 (Simulation time: 4 hr 14 min 45 sec) 
Heartbeat CPU 0 instructions: 84000000 cycles: 113076393 heartbeat IPC: 0.779061 cumulative IPC: 0.692734 (Simulation time: 4 hr 17 min 20 sec) 
Heartbeat CPU 0 instructions: 85000001 cycles: 114329430 heartbeat IPC: 0.798062 cumulative IPC: 0.693955 (Simulation time: 4 hr 19 min 54 sec) 
Heartbeat CPU 0 instructions: 86000003 cycles: 115617218 heartbeat IPC: 0.776527 cumulative IPC: 0.694928 (Simulation time: 4 hr 22 min 23 sec) 
Heartbeat CPU 0 instructions: 87000001 cycles: 116896647 heartbeat IPC: 0.781597 cumulative IPC: 0.69593 (Simulation time: 4 hr 24 min 42 sec) 
Heartbeat CPU 0 instructions: 88000000 cycles: 118176059 heartbeat IPC: 0.781608 cumulative IPC: 0.696909 (Simulation time: 4 hr 26 min 55 sec) 
Heartbeat CPU 0 instructions: 89000001 cycles: 119474557 heartbeat IPC: 0.770121 cumulative IPC: 0.697749 (Simulation time: 4 hr 28 min 54 sec) 
Heartbeat CPU 0 instructions: 90000002 cycles: 120762571 heartbeat IPC: 0.77639 cumulative IPC: 0.698633 (Simulation time: 4 hr 30 min 48 sec) 
Heartbeat CPU 0 instructions: 91000000 cycles: 122055992 heartbeat IPC: 0.773142 cumulative IPC: 0.699466 (Simulation time: 4 hr 32 min 40 sec) 
Heartbeat CPU 0 instructions: 92000000 cycles: 123312409 heartbeat IPC: 0.795914 cumulative IPC: 0.700501 (Simulation time: 4 hr 34 min 27 sec) 
Heartbeat CPU 0 instructions: 93000002 cycles: 124623913 heartbeat IPC: 0.762485 cumulative IPC: 0.701188 (Simulation time: 4 hr 36 min 9 sec) 
Heartbeat CPU 0 instructions: 94000000 cycles: 125884650 heartbeat IPC: 0.793185 cumulative IPC: 0.702157 (Simulation time: 4 hr 37 min 44 sec) 
Heartbeat CPU 0 instructions: 95000003 cycles: 127153472 heartbeat IPC: 0.788135 cumulative IPC: 0.703059 (Simulation time: 4 hr 39 min 21 sec) 
Heartbeat CPU 0 instructions: 96000000 cycles: 128447442 heartbeat IPC: 0.772813 cumulative IPC: 0.703798 (Simulation time: 4 hr 40 min 53 sec) 
Heartbeat CPU 0 instructions: 97000001 cycles: 129699396 heartbeat IPC: 0.798752 cumulative IPC: 0.704761 (Simulation time: 4 hr 42 min 19 sec) 
Heartbeat CPU 0 instructions: 98000002 cycles: 131003978 heartbeat IPC: 0.76653 cumulative IPC: 0.705407 (Simulation time: 4 hr 43 min 47 sec) 
Heartbeat CPU 0 instructions: 99000000 cycles: 132257638 heartbeat IPC: 0.797663 cumulative IPC: 0.706325 (Simulation time: 4 hr 45 min 2 sec) 
Heartbeat CPU 0 instructions: 100000000 cycles: 133566941 heartbeat IPC: 0.763765 cumulative IPC: 0.706916 (Simulation time: 4 hr 46 min 16 sec) 
Heartbeat CPU 0 instructions: 101000000 cycles: 134829203 heartbeat IPC: 0.792229 cumulative IPC: 0.707753 (Simulation time: 4 hr 47 min 23 sec) 
Heartbeat CPU 0 instructions: 102000001 cycles: 136086920 heartbeat IPC: 0.795092 cumulative IPC: 0.708599 (Simulation time: 4 hr 48 min 30 sec) 
Heartbeat CPU 0 instructions: 103000002 cycles: 137393053 heartbeat IPC: 0.76562 cumulative IPC: 0.709167 (Simulation time: 4 hr 49 min 26 sec) 
Heartbeat CPU 0 instructions: 104000000 cycles: 138643911 heartbeat IPC: 0.79945 cumulative IPC: 0.71002 (Simulation time: 4 hr 50 min 19 sec) 
Heartbeat CPU 0 instructions: 105000001 cycles: 139959854 heartbeat IPC: 0.759912 cumulative IPC: 0.710511 (Simulation time: 4 hr 51 min 10 sec) 
Heartbeat CPU 0 instructions: 106000002 cycles: 141224638 heartbeat IPC: 0.79065 cumulative IPC: 0.711262 (Simulation time: 4 hr 51 min 57 sec) 
Heartbeat CPU 0 instructions: 107000000 cycles: 142522610 heartbeat IPC: 0.770431 cumulative IPC: 0.711826 (Simulation time: 4 hr 52 min 40 sec) 
Heartbeat CPU 0 instructions: 108000000 cycles: 143791869 heartbeat IPC: 0.787861 cumulative IPC: 0.712527 (Simulation time: 4 hr 53 min 19 sec) 
Heartbeat CPU 0 instructions: 109000003 cycles: 145053804 heartbeat IPC: 0.792436 cumulative IPC: 0.713254 (Simulation time: 4 hr 53 min 55 sec) 
Heartbeat CPU 0 instructions: 110000001 cycles: 146355756 heartbeat IPC: 0.768076 cumulative IPC: 0.713763 (Simulation time: 4 hr 54 min 31 sec) 
Finished CPU 0 instructions: 100000000 cycles: 140102450 cummulative IPC: 0.713763 (Simulation time: 4 hr 54 min 31 sec) 

ChampSim completed all CPUs

Region of Interest Statistics

CPU 0 cummulative IPC: 0.713763 instructions: 100000000 cycles: 140102450
LLC TOTAL     ACCESS:    3756855  HIT:    1340186  MISS:    2416669
LLC LOAD      ACCESS:     405705  HIT:     140206  MISS:     265499
LLC RFO       ACCESS:     463733  HIT:     173973  MISS:     289760
LLC PREFETCH  ACCESS:    2138231  HIT:     633105  MISS:    1505126
LLC WRITEBACK ACCESS:     749186  HIT:     392902  MISS:     356284
Insertion Distribution: 
	LOAD 38629 0 62145 168301 
	RFO 1111 0 49357 241618 
	PREF 0 86230 411910 1182501 
	WRITEBACK 0 0 0 377621 
Total Prefetch Downgrades: 84339
