
*** ChampSim Multicore Out-of-Order Simulator ***

Warmup Instructions: 10000000
Simulation Instructions: 100000000
Configuration: 2
Number of CPUs: 1
LLC sets: 2048
LLC ways: 16
Off-chip DRAM Channels: 1 Width: 64-bit Data Rate: 1600 MT/s

CPU 0 runs /datasets/cs240c-wi22-a00-public/data/Assignment2-gz/soplex_217B.trace.gz
CPU 0 L1D next line prefetcher
CPU 0 L2C IP-based stride prefetcher
Initialize SRRIP state
Heartbeat CPU 0 instructions: 1000002 cycles: 441471 heartbeat IPC: 2.26516 cumulative IPC: 2.26516 (Simulation time: 0 hr 3 min 9 sec) 
Heartbeat CPU 0 instructions: 2000003 cycles: 800518 heartbeat IPC: 2.78515 cumulative IPC: 2.49839 (Simulation time: 0 hr 5 min 42 sec) 
Heartbeat CPU 0 instructions: 3000002 cycles: 1245549 heartbeat IPC: 2.24703 cumulative IPC: 2.40858 (Simulation time: 0 hr 8 min 33 sec) 
Heartbeat CPU 0 instructions: 4000000 cycles: 1673382 heartbeat IPC: 2.33736 cumulative IPC: 2.39037 (Simulation time: 0 hr 11 min 29 sec) 
Heartbeat CPU 0 instructions: 5000001 cycles: 2057431 heartbeat IPC: 2.60384 cumulative IPC: 2.43022 (Simulation time: 0 hr 13 min 52 sec) 
Heartbeat CPU 0 instructions: 6000000 cycles: 2431853 heartbeat IPC: 2.67078 cumulative IPC: 2.46725 (Simulation time: 0 hr 16 min 9 sec) 
Heartbeat CPU 0 instructions: 7000003 cycles: 2961273 heartbeat IPC: 1.88887 cumulative IPC: 2.36385 (Simulation time: 0 hr 18 min 37 sec) 
Heartbeat CPU 0 instructions: 8000000 cycles: 3409046 heartbeat IPC: 2.23327 cumulative IPC: 2.3467 (Simulation time: 0 hr 21 min 43 sec) 
Heartbeat CPU 0 instructions: 9000001 cycles: 3833447 heartbeat IPC: 2.35626 cumulative IPC: 2.34776 (Simulation time: 0 hr 24 min 22 sec) 
Heartbeat CPU 0 instructions: 10000000 cycles: 4245782 heartbeat IPC: 2.42521 cumulative IPC: 2.35528 (Simulation time: 0 hr 27 min 12 sec) 

Warmup complete CPU 0 instructions: 10000004 cycles: 4245783 (Simulation time: 0 hr 27 min 12 sec) 

Heartbeat CPU 0 instructions: 11000002 cycles: 7921633 heartbeat IPC: 0.272046 cumulative IPC: 0.272045 (Simulation time: 0 hr 31 min 16 sec) 
Heartbeat CPU 0 instructions: 12000000 cycles: 10444229 heartbeat IPC: 0.396416 cumulative IPC: 0.322661 (Simulation time: 0 hr 33 min 59 sec) 
Heartbeat CPU 0 instructions: 13000000 cycles: 11737733 heartbeat IPC: 0.773094 cumulative IPC: 0.400429 (Simulation time: 0 hr 36 min 12 sec) 
Heartbeat CPU 0 instructions: 14000000 cycles: 14390237 heartbeat IPC: 0.377002 cumulative IPC: 0.394304 (Simulation time: 0 hr 39 min 13 sec) 
Heartbeat CPU 0 instructions: 15000000 cycles: 17051366 heartbeat IPC: 0.37578 cumulative IPC: 0.390454 (Simulation time: 0 hr 42 min 34 sec) 
Heartbeat CPU 0 instructions: 16000000 cycles: 20701456 heartbeat IPC: 0.273966 cumulative IPC: 0.364616 (Simulation time: 0 hr 46 min 57 sec) 
Heartbeat CPU 0 instructions: 17000002 cycles: 22936104 heartbeat IPC: 0.447499 cumulative IPC: 0.374525 (Simulation time: 0 hr 49 min 54 sec) 
Heartbeat CPU 0 instructions: 18000002 cycles: 25498810 heartbeat IPC: 0.390213 cumulative IPC: 0.376417 (Simulation time: 0 hr 53 min 9 sec) 
Heartbeat CPU 0 instructions: 19000000 cycles: 28930212 heartbeat IPC: 0.291425 cumulative IPC: 0.364602 (Simulation time: 0 hr 56 min 26 sec) 
Heartbeat CPU 0 instructions: 20000000 cycles: 30253082 heartbeat IPC: 0.755932 cumulative IPC: 0.384507 (Simulation time: 0 hr 58 min 35 sec) 
Heartbeat CPU 0 instructions: 21000000 cycles: 31653030 heartbeat IPC: 0.714312 cumulative IPC: 0.401354 (Simulation time: 1 hr 0 min 43 sec) 
Heartbeat CPU 0 instructions: 22000001 cycles: 34881431 heartbeat IPC: 0.309751 cumulative IPC: 0.3917 (Simulation time: 1 hr 3 min 43 sec) 
Heartbeat CPU 0 instructions: 23000003 cycles: 38121704 heartbeat IPC: 0.308617 cumulative IPC: 0.383753 (Simulation time: 1 hr 7 min 7 sec) 
Heartbeat CPU 0 instructions: 24000000 cycles: 41565384 heartbeat IPC: 0.290386 cumulative IPC: 0.375138 (Simulation time: 1 hr 10 min 46 sec) 
Heartbeat CPU 0 instructions: 25000001 cycles: 42991827 heartbeat IPC: 0.701045 cumulative IPC: 0.387136 (Simulation time: 1 hr 13 min 20 sec) 
Heartbeat CPU 0 instructions: 26000003 cycles: 46821976 heartbeat IPC: 0.261087 cumulative IPC: 0.375797 (Simulation time: 1 hr 17 min 10 sec) 
Heartbeat CPU 0 instructions: 27000002 cycles: 49182474 heartbeat IPC: 0.423639 cumulative IPC: 0.37831 (Simulation time: 1 hr 19 min 49 sec) 
Heartbeat CPU 0 instructions: 28000000 cycles: 50478542 heartbeat IPC: 0.771563 cumulative IPC: 0.389334 (Simulation time: 1 hr 21 min 56 sec) 
Heartbeat CPU 0 instructions: 29000002 cycles: 53150557 heartbeat IPC: 0.37425 cumulative IPC: 0.38851 (Simulation time: 1 hr 24 min 26 sec) 
Heartbeat CPU 0 instructions: 30000002 cycles: 55904605 heartbeat IPC: 0.363102 cumulative IPC: 0.387156 (Simulation time: 1 hr 27 min 27 sec) 
Heartbeat CPU 0 instructions: 31000000 cycles: 59073462 heartbeat IPC: 0.315571 cumulative IPC: 0.383018 (Simulation time: 1 hr 30 min 45 sec) 
Heartbeat CPU 0 instructions: 32000000 cycles: 60831149 heartbeat IPC: 0.568929 cumulative IPC: 0.388793 (Simulation time: 1 hr 33 min 27 sec) 
Heartbeat CPU 0 instructions: 33000001 cycles: 64355943 heartbeat IPC: 0.283705 cumulative IPC: 0.382631 (Simulation time: 1 hr 37 min 10 sec) 
Heartbeat CPU 0 instructions: 34000000 cycles: 67167079 heartbeat IPC: 0.355728 cumulative IPC: 0.381429 (Simulation time: 1 hr 40 min 12 sec) 
Heartbeat CPU 0 instructions: 35000002 cycles: 68483546 heartbeat IPC: 0.75961 cumulative IPC: 0.389179 (Simulation time: 1 hr 42 min 25 sec) 
Heartbeat CPU 0 instructions: 36000000 cycles: 70709800 heartbeat IPC: 0.449184 cumulative IPC: 0.391189 (Simulation time: 1 hr 44 min 59 sec) 
Heartbeat CPU 0 instructions: 37000002 cycles: 73355824 heartbeat IPC: 0.377926 cumulative IPC: 0.390681 (Simulation time: 1 hr 48 min 23 sec) 
Heartbeat CPU 0 instructions: 38000000 cycles: 76774486 heartbeat IPC: 0.292512 cumulative IPC: 0.386054 (Simulation time: 1 hr 52 min 15 sec) 
Heartbeat CPU 0 instructions: 39000001 cycles: 78834813 heartbeat IPC: 0.48536 cumulative IPC: 0.388797 (Simulation time: 1 hr 55 min 11 sec) 
Heartbeat CPU 0 instructions: 40000000 cycles: 82013432 heartbeat IPC: 0.314602 cumulative IPC: 0.385764 (Simulation time: 1 hr 58 min 59 sec) 
Heartbeat CPU 0 instructions: 41000000 cycles: 85034320 heartbeat IPC: 0.331028 cumulative IPC: 0.383718 (Simulation time: 2 hr 1 min 58 sec) 
Heartbeat CPU 0 instructions: 42000002 cycles: 86363493 heartbeat IPC: 0.752349 cumulative IPC: 0.389684 (Simulation time: 2 hr 4 min 0 sec) 
Heartbeat CPU 0 instructions: 43000001 cycles: 88136476 heartbeat IPC: 0.564021 cumulative IPC: 0.393369 (Simulation time: 2 hr 6 min 28 sec) 
Heartbeat CPU 0 instructions: 44000000 cycles: 90957162 heartbeat IPC: 0.354523 cumulative IPC: 0.392105 (Simulation time: 2 hr 9 min 24 sec) 
Heartbeat CPU 0 instructions: 45000003 cycles: 94466599 heartbeat IPC: 0.284947 cumulative IPC: 0.387937 (Simulation time: 2 hr 13 min 8 sec) 
Heartbeat CPU 0 instructions: 46000000 cycles: 97478955 heartbeat IPC: 0.331965 cumulative IPC: 0.386129 (Simulation time: 2 hr 16 min 46 sec) 
Heartbeat CPU 0 instructions: 47000001 cycles: 99109679 heartbeat IPC: 0.613225 cumulative IPC: 0.390032 (Simulation time: 2 hr 19 min 31 sec) 
Heartbeat CPU 0 instructions: 48000000 cycles: 102731774 heartbeat IPC: 0.276083 cumulative IPC: 0.385842 (Simulation time: 2 hr 23 min 19 sec) 
Heartbeat CPU 0 instructions: 49000000 cycles: 105310012 heartbeat IPC: 0.387862 cumulative IPC: 0.385893 (Simulation time: 2 hr 26 min 5 sec) 
Heartbeat CPU 0 instructions: 50000001 cycles: 106619283 heartbeat IPC: 0.763785 cumulative IPC: 0.390726 (Simulation time: 2 hr 28 min 8 sec) 
Heartbeat CPU 0 instructions: 51000000 cycles: 109156503 heartbeat IPC: 0.394132 cumulative IPC: 0.390808 (Simulation time: 2 hr 30 min 57 sec) 
Heartbeat CPU 0 instructions: 52000000 cycles: 111846949 heartbeat IPC: 0.371686 cumulative IPC: 0.39033 (Simulation time: 2 hr 34 min 0 sec) 
Heartbeat CPU 0 instructions: 53000000 cycles: 115074469 heartbeat IPC: 0.309835 cumulative IPC: 0.387986 (Simulation time: 2 hr 37 min 21 sec) 
Heartbeat CPU 0 instructions: 54000000 cycles: 116948347 heartbeat IPC: 0.533653 cumulative IPC: 0.390408 (Simulation time: 2 hr 39 min 59 sec) 
Heartbeat CPU 0 instructions: 55000000 cycles: 120323257 heartbeat IPC: 0.296304 cumulative IPC: 0.387672 (Simulation time: 2 hr 43 min 29 sec) 
Heartbeat CPU 0 instructions: 56000000 cycles: 123163814 heartbeat IPC: 0.352044 cumulative IPC: 0.386821 (Simulation time: 2 hr 46 min 25 sec) 
Heartbeat CPU 0 instructions: 57000003 cycles: 124475291 heartbeat IPC: 0.762501 cumulative IPC: 0.390919 (Simulation time: 2 hr 48 min 32 sec) 
Heartbeat CPU 0 instructions: 58000000 cycles: 126642209 heartbeat IPC: 0.461484 cumulative IPC: 0.392168 (Simulation time: 2 hr 50 min 54 sec) 
Heartbeat CPU 0 instructions: 59000000 cycles: 129289476 heartbeat IPC: 0.377748 cumulative IPC: 0.391863 (Simulation time: 2 hr 54 min 7 sec) 
Heartbeat CPU 0 instructions: 60000000 cycles: 132654093 heartbeat IPC: 0.297211 cumulative IPC: 0.389383 (Simulation time: 2 hr 57 min 54 sec) 
Heartbeat CPU 0 instructions: 61000000 cycles: 134889635 heartbeat IPC: 0.447319 cumulative IPC: 0.390374 (Simulation time: 3 hr 1 min 4 sec) 
Heartbeat CPU 0 instructions: 62000002 cycles: 137670096 heartbeat IPC: 0.359653 cumulative IPC: 0.389734 (Simulation time: 3 hr 4 min 34 sec) 
Heartbeat CPU 0 instructions: 63000001 cycles: 141023480 heartbeat IPC: 0.298206 cumulative IPC: 0.38749 (Simulation time: 3 hr 7 min 56 sec) 
Heartbeat CPU 0 instructions: 64000000 cycles: 142353563 heartbeat IPC: 0.751832 cumulative IPC: 0.390999 (Simulation time: 3 hr 9 min 52 sec) 
Heartbeat CPU 0 instructions: 65000000 cycles: 143838663 heartbeat IPC: 0.673355 cumulative IPC: 0.394003 (Simulation time: 3 hr 12 min 0 sec) 
Heartbeat CPU 0 instructions: 66000002 cycles: 146982259 heartbeat IPC: 0.318108 cumulative IPC: 0.392331 (Simulation time: 3 hr 14 min 48 sec) 
Heartbeat CPU 0 instructions: 67000000 cycles: 150126773 heartbeat IPC: 0.318014 cumulative IPC: 0.390729 (Simulation time: 3 hr 18 min 9 sec) 
Heartbeat CPU 0 instructions: 68000000 cycles: 156011970 heartbeat IPC: 0.169918 cumulative IPC: 0.382167 (Simulation time: 3 hr 21 min 40 sec) 
Heartbeat CPU 0 instructions: 69000001 cycles: 160134815 heartbeat IPC: 0.242551 cumulative IPC: 0.378474 (Simulation time: 3 hr 25 min 4 sec) 
Heartbeat CPU 0 instructions: 70000000 cycles: 164092437 heartbeat IPC: 0.252677 cumulative IPC: 0.37536 (Simulation time: 3 hr 29 min 2 sec) 
Heartbeat CPU 0 instructions: 71000002 cycles: 168296503 heartbeat IPC: 0.237865 cumulative IPC: 0.371836 (Simulation time: 3 hr 32 min 39 sec) 
Heartbeat CPU 0 instructions: 72000000 cycles: 171595895 heartbeat IPC: 0.303086 cumulative IPC: 0.370481 (Simulation time: 3 hr 35 min 42 sec) 
Heartbeat CPU 0 instructions: 73000000 cycles: 174887853 heartbeat IPC: 0.303771 cumulative IPC: 0.369194 (Simulation time: 3 hr 39 min 16 sec) 
Heartbeat CPU 0 instructions: 74000000 cycles: 178491452 heartbeat IPC: 0.2775 cumulative IPC: 0.367297 (Simulation time: 3 hr 42 min 5 sec) 
Heartbeat CPU 0 instructions: 75000002 cycles: 182130232 heartbeat IPC: 0.274818 cumulative IPC: 0.365406 (Simulation time: 3 hr 45 min 22 sec) 
Heartbeat CPU 0 instructions: 76000000 cycles: 184660665 heartbeat IPC: 0.395188 cumulative IPC: 0.365823 (Simulation time: 3 hr 48 min 24 sec) 
Heartbeat CPU 0 instructions: 77000000 cycles: 188193025 heartbeat IPC: 0.283097 cumulative IPC: 0.364235 (Simulation time: 3 hr 51 min 40 sec) 
Heartbeat CPU 0 instructions: 78000002 cycles: 190370585 heartbeat IPC: 0.459231 cumulative IPC: 0.365346 (Simulation time: 3 hr 54 min 37 sec) 
Heartbeat CPU 0 instructions: 79000002 cycles: 192260748 heartbeat IPC: 0.529055 cumulative IPC: 0.366992 (Simulation time: 3 hr 57 min 41 sec) 
Heartbeat CPU 0 instructions: 80000000 cycles: 193474479 heartbeat IPC: 0.823904 cumulative IPC: 0.369923 (Simulation time: 4 hr 0 min 1 sec) 
Heartbeat CPU 0 instructions: 81000003 cycles: 195738692 heartbeat IPC: 0.441656 cumulative IPC: 0.370771 (Simulation time: 4 hr 3 min 4 sec) 
Heartbeat CPU 0 instructions: 82000001 cycles: 198543280 heartbeat IPC: 0.356558 cumulative IPC: 0.370566 (Simulation time: 4 hr 6 min 30 sec) 
Heartbeat CPU 0 instructions: 83000002 cycles: 200961304 heartbeat IPC: 0.413561 cumulative IPC: 0.371094 (Simulation time: 4 hr 9 min 30 sec) 
Heartbeat CPU 0 instructions: 84000000 cycles: 203191343 heartbeat IPC: 0.448422 cumulative IPC: 0.371961 (Simulation time: 4 hr 12 min 12 sec) 
Heartbeat CPU 0 instructions: 85000000 cycles: 204758139 heartbeat IPC: 0.638245 cumulative IPC: 0.374042 (Simulation time: 4 hr 14 min 32 sec) 
Heartbeat CPU 0 instructions: 86000001 cycles: 208463803 heartbeat IPC: 0.269857 cumulative IPC: 0.372151 (Simulation time: 4 hr 17 min 43 sec) 
Heartbeat CPU 0 instructions: 87000000 cycles: 211047927 heartbeat IPC: 0.386978 cumulative IPC: 0.372337 (Simulation time: 4 hr 19 min 56 sec) 
Heartbeat CPU 0 instructions: 88000000 cycles: 212352814 heartbeat IPC: 0.76635 cumulative IPC: 0.374807 (Simulation time: 4 hr 21 min 30 sec) 
Heartbeat CPU 0 instructions: 89000003 cycles: 214932931 heartbeat IPC: 0.38758 cumulative IPC: 0.374964 (Simulation time: 4 hr 23 min 30 sec) 
Heartbeat CPU 0 instructions: 90000002 cycles: 217649306 heartbeat IPC: 0.368137 cumulative IPC: 0.374877 (Simulation time: 4 hr 25 min 51 sec) 
Heartbeat CPU 0 instructions: 91000001 cycles: 220903549 heartbeat IPC: 0.307291 cumulative IPC: 0.373861 (Simulation time: 4 hr 28 min 13 sec) 
Heartbeat CPU 0 instructions: 92000000 cycles: 222751315 heartbeat IPC: 0.541194 cumulative IPC: 0.375277 (Simulation time: 4 hr 29 min 52 sec) 
Heartbeat CPU 0 instructions: 93000000 cycles: 226232388 heartbeat IPC: 0.287268 cumulative IPC: 0.373896 (Simulation time: 4 hr 32 min 0 sec) 
Heartbeat CPU 0 instructions: 94000001 cycles: 229112826 heartbeat IPC: 0.34717 cumulative IPC: 0.373554 (Simulation time: 4 hr 33 min 42 sec) 
Heartbeat CPU 0 instructions: 95000003 cycles: 230446508 heartbeat IPC: 0.749805 cumulative IPC: 0.375772 (Simulation time: 4 hr 34 min 46 sec) 
Heartbeat CPU 0 instructions: 96000000 cycles: 232662509 heartbeat IPC: 0.451262 cumulative IPC: 0.376505 (Simulation time: 4 hr 36 min 8 sec) 
Heartbeat CPU 0 instructions: 97000002 cycles: 235152633 heartbeat IPC: 0.401587 cumulative IPC: 0.376775 (Simulation time: 4 hr 37 min 40 sec) 
Heartbeat CPU 0 instructions: 98000003 cycles: 239115998 heartbeat IPC: 0.252311 cumulative IPC: 0.374675 (Simulation time: 4 hr 39 min 46 sec) 
Heartbeat CPU 0 instructions: 99000000 cycles: 241981115 heartbeat IPC: 0.349025 cumulative IPC: 0.374366 (Simulation time: 4 hr 41 min 20 sec) 
Heartbeat CPU 0 instructions: 100000000 cycles: 243906993 heartbeat IPC: 0.519244 cumulative IPC: 0.37553 (Simulation time: 4 hr 42 min 40 sec) 
Heartbeat CPU 0 instructions: 101000001 cycles: 247872414 heartbeat IPC: 0.25218 cumulative IPC: 0.373522 (Simulation time: 4 hr 44 min 21 sec) 
Heartbeat CPU 0 instructions: 102000000 cycles: 249495162 heartbeat IPC: 0.616238 cumulative IPC: 0.375128 (Simulation time: 4 hr 45 min 10 sec) 
Heartbeat CPU 0 instructions: 103000001 cycles: 250760909 heartbeat IPC: 0.790048 cumulative IPC: 0.377259 (Simulation time: 4 hr 45 min 58 sec) 
Heartbeat CPU 0 instructions: 104000000 cycles: 254066306 heartbeat IPC: 0.302535 cumulative IPC: 0.37627 (Simulation time: 4 hr 46 min 59 sec) 
Heartbeat CPU 0 instructions: 105000003 cycles: 256909713 heartbeat IPC: 0.351692 cumulative IPC: 0.375994 (Simulation time: 4 hr 48 min 8 sec) 
Heartbeat CPU 0 instructions: 106000002 cycles: 259707817 heartbeat IPC: 0.357385 cumulative IPC: 0.37579 (Simulation time: 4 hr 49 min 10 sec) 
Heartbeat CPU 0 instructions: 107000000 cycles: 261473457 heartbeat IPC: 0.566366 cumulative IPC: 0.377098 (Simulation time: 4 hr 50 min 10 sec) 
Heartbeat CPU 0 instructions: 108000000 cycles: 265372743 heartbeat IPC: 0.256457 cumulative IPC: 0.375296 (Simulation time: 4 hr 51 min 18 sec) 
Heartbeat CPU 0 instructions: 109000000 cycles: 267293082 heartbeat IPC: 0.520741 cumulative IPC: 0.376358 (Simulation time: 4 hr 51 min 52 sec) 
Heartbeat CPU 0 instructions: 110000002 cycles: 268567606 heartbeat IPC: 0.784608 cumulative IPC: 0.378327 (Simulation time: 4 hr 52 min 21 sec) 
Finished CPU 0 instructions: 100000000 cycles: 264321827 cummulative IPC: 0.378327 (Simulation time: 4 hr 52 min 21 sec) 

ChampSim completed all CPUs

Region of Interest Statistics

CPU 0 cummulative IPC: 0.378327 instructions: 100000000 cycles: 264321827
LLC TOTAL     ACCESS:    8715013  HIT:    4854506  MISS:    3860507
LLC LOAD      ACCESS:    2237578  HIT:    1100589  MISS:    1136989
LLC RFO       ACCESS:     764932  HIT:     272818  MISS:     492114
LLC PREFETCH  ACCESS:    3552036  HIT:    1625118  MISS:    1926918
LLC WRITEBACK ACCESS:    2160467  HIT:    1855981  MISS:     304486
Insertion Distribution: 
	LOAD 389096 0 231277 621735 
	RFO 249638 0 139330 157071 
	PREF 0 206939 523721 1438839 
	WRITEBACK 0 0 0 347095 
Total Prefetch Downgrades: 204283
