
*** ChampSim Multicore Out-of-Order Simulator ***

Warmup Instructions: 10000000
Simulation Instructions: 100000000
Configuration: 2
Number of CPUs: 1
LLC sets: 2048
LLC ways: 16
Off-chip DRAM Channels: 1 Width: 64-bit Data Rate: 1600 MT/s

CPU 0 runs /datasets/cs240c-wi22-a00-public/data/Assignment2-gz/milc_744B.trace.gz
CPU 0 L1D next line prefetcher
CPU 0 L2C IP-based stride prefetcher
Initialize SRRIP state
Heartbeat CPU 0 instructions: 1000000 cycles: 383656 heartbeat IPC: 2.6065 cumulative IPC: 2.6065 (Simulation time: 0 hr 2 min 39 sec) 
Heartbeat CPU 0 instructions: 2000001 cycles: 767293 heartbeat IPC: 2.60663 cumulative IPC: 2.60657 (Simulation time: 0 hr 5 min 18 sec) 
Heartbeat CPU 0 instructions: 3000001 cycles: 1150974 heartbeat IPC: 2.60633 cumulative IPC: 2.60649 (Simulation time: 0 hr 7 min 37 sec) 
Heartbeat CPU 0 instructions: 4000000 cycles: 1534617 heartbeat IPC: 2.60659 cumulative IPC: 2.60651 (Simulation time: 0 hr 10 min 6 sec) 
Heartbeat CPU 0 instructions: 5000001 cycles: 1918298 heartbeat IPC: 2.60633 cumulative IPC: 2.60648 (Simulation time: 0 hr 12 min 26 sec) 
Heartbeat CPU 0 instructions: 6000002 cycles: 2301951 heartbeat IPC: 2.60652 cumulative IPC: 2.60649 (Simulation time: 0 hr 14 min 56 sec) 
Heartbeat CPU 0 instructions: 7000002 cycles: 2685605 heartbeat IPC: 2.60652 cumulative IPC: 2.60649 (Simulation time: 0 hr 17 min 22 sec) 
Heartbeat CPU 0 instructions: 8000000 cycles: 3069239 heartbeat IPC: 2.60665 cumulative IPC: 2.60651 (Simulation time: 0 hr 19 min 56 sec) 
Heartbeat CPU 0 instructions: 9000003 cycles: 3452946 heartbeat IPC: 2.60616 cumulative IPC: 2.60647 (Simulation time: 0 hr 22 min 35 sec) 
Heartbeat CPU 0 instructions: 10000002 cycles: 3836611 heartbeat IPC: 2.60644 cumulative IPC: 2.60647 (Simulation time: 0 hr 25 min 8 sec) 

Warmup complete CPU 0 instructions: 10000002 cycles: 3836611 (Simulation time: 0 hr 25 min 8 sec) 

Heartbeat CPU 0 instructions: 11000003 cycles: 5245849 heartbeat IPC: 0.709604 cumulative IPC: 0.709604 (Simulation time: 0 hr 27 min 44 sec) 
Heartbeat CPU 0 instructions: 12000000 cycles: 6647049 heartbeat IPC: 0.713672 cumulative IPC: 0.711632 (Simulation time: 0 hr 30 min 27 sec) 
Heartbeat CPU 0 instructions: 13000003 cycles: 8053806 heartbeat IPC: 0.710857 cumulative IPC: 0.711374 (Simulation time: 0 hr 32 min 56 sec) 
Heartbeat CPU 0 instructions: 14000000 cycles: 9467138 heartbeat IPC: 0.707546 cumulative IPC: 0.710413 (Simulation time: 0 hr 35 min 54 sec) 
Heartbeat CPU 0 instructions: 15000000 cycles: 10877331 heartbeat IPC: 0.709123 cumulative IPC: 0.710154 (Simulation time: 0 hr 38 min 35 sec) 
Heartbeat CPU 0 instructions: 16000000 cycles: 12291129 heartbeat IPC: 0.707315 cumulative IPC: 0.709679 (Simulation time: 0 hr 41 min 11 sec) 
Heartbeat CPU 0 instructions: 17000001 cycles: 13714898 heartbeat IPC: 0.702362 cumulative IPC: 0.708625 (Simulation time: 0 hr 43 min 48 sec) 
Heartbeat CPU 0 instructions: 18000000 cycles: 15137507 heartbeat IPC: 0.702933 cumulative IPC: 0.707908 (Simulation time: 0 hr 46 min 22 sec) 
Heartbeat CPU 0 instructions: 19000003 cycles: 16553612 heartbeat IPC: 0.706164 cumulative IPC: 0.707714 (Simulation time: 0 hr 48 min 58 sec) 
Heartbeat CPU 0 instructions: 20000000 cycles: 17973368 heartbeat IPC: 0.704344 cumulative IPC: 0.707376 (Simulation time: 0 hr 51 min 26 sec) 
Heartbeat CPU 0 instructions: 21000003 cycles: 19391079 heartbeat IPC: 0.705364 cumulative IPC: 0.707192 (Simulation time: 0 hr 54 min 4 sec) 
Heartbeat CPU 0 instructions: 22000002 cycles: 20809599 heartbeat IPC: 0.704959 cumulative IPC: 0.707006 (Simulation time: 0 hr 56 min 37 sec) 
Heartbeat CPU 0 instructions: 23000000 cycles: 22227461 heartbeat IPC: 0.705286 cumulative IPC: 0.706873 (Simulation time: 0 hr 59 min 12 sec) 
Heartbeat CPU 0 instructions: 24000000 cycles: 23639475 heartbeat IPC: 0.708208 cumulative IPC: 0.706968 (Simulation time: 1 hr 1 min 59 sec) 
Heartbeat CPU 0 instructions: 25000002 cycles: 25056949 heartbeat IPC: 0.705482 cumulative IPC: 0.706869 (Simulation time: 1 hr 4 min 45 sec) 
Heartbeat CPU 0 instructions: 26000001 cycles: 26474935 heartbeat IPC: 0.705225 cumulative IPC: 0.706766 (Simulation time: 1 hr 7 min 26 sec) 
Heartbeat CPU 0 instructions: 27000001 cycles: 27894144 heartbeat IPC: 0.704618 cumulative IPC: 0.706639 (Simulation time: 1 hr 10 min 5 sec) 
Heartbeat CPU 0 instructions: 28000000 cycles: 29310627 heartbeat IPC: 0.705973 cumulative IPC: 0.706602 (Simulation time: 1 hr 12 min 49 sec) 
Heartbeat CPU 0 instructions: 29000000 cycles: 30726958 heartbeat IPC: 0.70605 cumulative IPC: 0.706573 (Simulation time: 1 hr 15 min 30 sec) 
Heartbeat CPU 0 instructions: 30000000 cycles: 32144476 heartbeat IPC: 0.705458 cumulative IPC: 0.706517 (Simulation time: 1 hr 18 min 18 sec) 
Heartbeat CPU 0 instructions: 31000003 cycles: 33561669 heartbeat IPC: 0.705622 cumulative IPC: 0.706475 (Simulation time: 1 hr 20 min 47 sec) 
Heartbeat CPU 0 instructions: 32000000 cycles: 34979162 heartbeat IPC: 0.705469 cumulative IPC: 0.706429 (Simulation time: 1 hr 23 min 22 sec) 
Heartbeat CPU 0 instructions: 33000001 cycles: 36401295 heartbeat IPC: 0.70317 cumulative IPC: 0.706287 (Simulation time: 1 hr 26 min 16 sec) 
Heartbeat CPU 0 instructions: 34000002 cycles: 37822305 heartbeat IPC: 0.703726 cumulative IPC: 0.706179 (Simulation time: 1 hr 28 min 49 sec) 
Heartbeat CPU 0 instructions: 35000000 cycles: 39245023 heartbeat IPC: 0.702879 cumulative IPC: 0.706047 (Simulation time: 1 hr 31 min 28 sec) 
Heartbeat CPU 0 instructions: 36000000 cycles: 40664513 heartbeat IPC: 0.704478 cumulative IPC: 0.705986 (Simulation time: 1 hr 34 min 21 sec) 
Heartbeat CPU 0 instructions: 37000001 cycles: 42090958 heartbeat IPC: 0.701044 cumulative IPC: 0.705802 (Simulation time: 1 hr 36 min 53 sec) 
Heartbeat CPU 0 instructions: 38000001 cycles: 43507165 heartbeat IPC: 0.706111 cumulative IPC: 0.705813 (Simulation time: 1 hr 39 min 43 sec) 
Heartbeat CPU 0 instructions: 39000001 cycles: 44927066 heartbeat IPC: 0.704274 cumulative IPC: 0.70576 (Simulation time: 1 hr 42 min 27 sec) 
Heartbeat CPU 0 instructions: 40000000 cycles: 46348128 heartbeat IPC: 0.703698 cumulative IPC: 0.705691 (Simulation time: 1 hr 45 min 8 sec) 
Heartbeat CPU 0 instructions: 41000000 cycles: 47767877 heartbeat IPC: 0.70435 cumulative IPC: 0.705648 (Simulation time: 1 hr 47 min 41 sec) 
Heartbeat CPU 0 instructions: 42000002 cycles: 49187107 heartbeat IPC: 0.704609 cumulative IPC: 0.705615 (Simulation time: 1 hr 50 min 20 sec) 
Heartbeat CPU 0 instructions: 43000003 cycles: 50606784 heartbeat IPC: 0.704386 cumulative IPC: 0.705578 (Simulation time: 1 hr 53 min 11 sec) 
Heartbeat CPU 0 instructions: 44000000 cycles: 52030185 heartbeat IPC: 0.702541 cumulative IPC: 0.705488 (Simulation time: 1 hr 56 min 5 sec) 
Heartbeat CPU 0 instructions: 45000000 cycles: 53450099 heartbeat IPC: 0.704268 cumulative IPC: 0.705453 (Simulation time: 1 hr 58 min 47 sec) 
Heartbeat CPU 0 instructions: 46000003 cycles: 54870309 heartbeat IPC: 0.704123 cumulative IPC: 0.705416 (Simulation time: 2 hr 1 min 39 sec) 
Heartbeat CPU 0 instructions: 47000002 cycles: 56291600 heartbeat IPC: 0.703585 cumulative IPC: 0.705367 (Simulation time: 2 hr 4 min 21 sec) 
Heartbeat CPU 0 instructions: 48000000 cycles: 57712773 heartbeat IPC: 0.703643 cumulative IPC: 0.705321 (Simulation time: 2 hr 6 min 58 sec) 
Heartbeat CPU 0 instructions: 49000001 cycles: 59129493 heartbeat IPC: 0.705857 cumulative IPC: 0.705335 (Simulation time: 2 hr 9 min 23 sec) 
Heartbeat CPU 0 instructions: 50000001 cycles: 60552135 heartbeat IPC: 0.702918 cumulative IPC: 0.705274 (Simulation time: 2 hr 12 min 7 sec) 
Heartbeat CPU 0 instructions: 51000001 cycles: 61973110 heartbeat IPC: 0.703742 cumulative IPC: 0.705237 (Simulation time: 2 hr 14 min 33 sec) 
Heartbeat CPU 0 instructions: 52000000 cycles: 63391673 heartbeat IPC: 0.704938 cumulative IPC: 0.70523 (Simulation time: 2 hr 17 min 6 sec) 
Heartbeat CPU 0 instructions: 53000000 cycles: 64810425 heartbeat IPC: 0.704845 cumulative IPC: 0.705221 (Simulation time: 2 hr 19 min 32 sec) 
Heartbeat CPU 0 instructions: 54000001 cycles: 66230174 heartbeat IPC: 0.704351 cumulative IPC: 0.705201 (Simulation time: 2 hr 22 min 11 sec) 
Heartbeat CPU 0 instructions: 55000003 cycles: 67652367 heartbeat IPC: 0.703141 cumulative IPC: 0.705155 (Simulation time: 2 hr 24 min 42 sec) 
Heartbeat CPU 0 instructions: 56000000 cycles: 69081617 heartbeat IPC: 0.699666 cumulative IPC: 0.705035 (Simulation time: 2 hr 27 min 9 sec) 
Heartbeat CPU 0 instructions: 57000000 cycles: 70501762 heartbeat IPC: 0.704153 cumulative IPC: 0.705016 (Simulation time: 2 hr 29 min 37 sec) 
Heartbeat CPU 0 instructions: 58000000 cycles: 71920050 heartbeat IPC: 0.705075 cumulative IPC: 0.705017 (Simulation time: 2 hr 32 min 18 sec) 
Heartbeat CPU 0 instructions: 59000002 cycles: 73341699 heartbeat IPC: 0.70341 cumulative IPC: 0.704984 (Simulation time: 2 hr 34 min 44 sec) 
Heartbeat CPU 0 instructions: 60000000 cycles: 74756964 heartbeat IPC: 0.70658 cumulative IPC: 0.705016 (Simulation time: 2 hr 37 min 23 sec) 
Heartbeat CPU 0 instructions: 61000001 cycles: 76179889 heartbeat IPC: 0.702778 cumulative IPC: 0.704972 (Simulation time: 2 hr 40 min 3 sec) 
Heartbeat CPU 0 instructions: 62000003 cycles: 77606117 heartbeat IPC: 0.701152 cumulative IPC: 0.704898 (Simulation time: 2 hr 42 min 42 sec) 
Heartbeat CPU 0 instructions: 63000001 cycles: 79028261 heartbeat IPC: 0.703162 cumulative IPC: 0.704866 (Simulation time: 2 hr 45 min 10 sec) 
Heartbeat CPU 0 instructions: 64000000 cycles: 80449280 heartbeat IPC: 0.70372 cumulative IPC: 0.704844 (Simulation time: 2 hr 47 min 42 sec) 
Heartbeat CPU 0 instructions: 65000002 cycles: 81875245 heartbeat IPC: 0.701281 cumulative IPC: 0.704779 (Simulation time: 2 hr 50 min 9 sec) 
Heartbeat CPU 0 instructions: 66000001 cycles: 83290985 heartbeat IPC: 0.706344 cumulative IPC: 0.704807 (Simulation time: 2 hr 52 min 52 sec) 
Heartbeat CPU 0 instructions: 67000003 cycles: 84712971 heartbeat IPC: 0.703243 cumulative IPC: 0.70478 (Simulation time: 2 hr 55 min 26 sec) 
Heartbeat CPU 0 instructions: 68000000 cycles: 86140742 heartbeat IPC: 0.70039 cumulative IPC: 0.704703 (Simulation time: 2 hr 58 min 20 sec) 
Heartbeat CPU 0 instructions: 69000003 cycles: 87566987 heartbeat IPC: 0.701144 cumulative IPC: 0.704643 (Simulation time: 3 hr 0 min 52 sec) 
Heartbeat CPU 0 instructions: 70000002 cycles: 88985474 heartbeat IPC: 0.704976 cumulative IPC: 0.704648 (Simulation time: 3 hr 3 min 20 sec) 
Heartbeat CPU 0 instructions: 71000002 cycles: 90399876 heartbeat IPC: 0.707013 cumulative IPC: 0.704687 (Simulation time: 3 hr 5 min 55 sec) 
Heartbeat CPU 0 instructions: 72000000 cycles: 91821754 heartbeat IPC: 0.703294 cumulative IPC: 0.704664 (Simulation time: 3 hr 8 min 22 sec) 
Heartbeat CPU 0 instructions: 73000002 cycles: 93244577 heartbeat IPC: 0.70283 cumulative IPC: 0.704635 (Simulation time: 3 hr 10 min 57 sec) 
Heartbeat CPU 0 instructions: 74000002 cycles: 94665518 heartbeat IPC: 0.703759 cumulative IPC: 0.704621 (Simulation time: 3 hr 13 min 27 sec) 
Heartbeat CPU 0 instructions: 75000001 cycles: 96085821 heartbeat IPC: 0.704074 cumulative IPC: 0.704613 (Simulation time: 3 hr 16 min 13 sec) 
Heartbeat CPU 0 instructions: 76000000 cycles: 97509180 heartbeat IPC: 0.702563 cumulative IPC: 0.704582 (Simulation time: 3 hr 18 min 54 sec) 
Heartbeat CPU 0 instructions: 77000002 cycles: 98930602 heartbeat IPC: 0.703522 cumulative IPC: 0.704566 (Simulation time: 3 hr 21 min 41 sec) 
Heartbeat CPU 0 instructions: 78000000 cycles: 100353460 heartbeat IPC: 0.702809 cumulative IPC: 0.70454 (Simulation time: 3 hr 24 min 23 sec) 
Heartbeat CPU 0 instructions: 79000000 cycles: 101779064 heartbeat IPC: 0.701457 cumulative IPC: 0.704495 (Simulation time: 3 hr 27 min 4 sec) 
Heartbeat CPU 0 instructions: 80000000 cycles: 103202184 heartbeat IPC: 0.702681 cumulative IPC: 0.704469 (Simulation time: 3 hr 29 min 44 sec) 
Heartbeat CPU 0 instructions: 81000003 cycles: 104621387 heartbeat IPC: 0.704623 cumulative IPC: 0.704471 (Simulation time: 3 hr 32 min 35 sec) 
Heartbeat CPU 0 instructions: 82000003 cycles: 106044193 heartbeat IPC: 0.702837 cumulative IPC: 0.704449 (Simulation time: 3 hr 35 min 9 sec) 
Heartbeat CPU 0 instructions: 83000002 cycles: 107466104 heartbeat IPC: 0.703278 cumulative IPC: 0.704433 (Simulation time: 3 hr 37 min 40 sec) 
Heartbeat CPU 0 instructions: 84000000 cycles: 108886153 heartbeat IPC: 0.7042 cumulative IPC: 0.70443 (Simulation time: 3 hr 40 min 16 sec) 
Heartbeat CPU 0 instructions: 85000000 cycles: 110306504 heartbeat IPC: 0.704051 cumulative IPC: 0.704424 (Simulation time: 3 hr 42 min 50 sec) 
Heartbeat CPU 0 instructions: 86000001 cycles: 111725102 heartbeat IPC: 0.704922 cumulative IPC: 0.704431 (Simulation time: 3 hr 45 min 16 sec) 
Heartbeat CPU 0 instructions: 87000001 cycles: 113150626 heartbeat IPC: 0.701496 cumulative IPC: 0.704393 (Simulation time: 3 hr 47 min 48 sec) 
Heartbeat CPU 0 instructions: 88000000 cycles: 114572152 heartbeat IPC: 0.703469 cumulative IPC: 0.704381 (Simulation time: 3 hr 50 min 18 sec) 
Heartbeat CPU 0 instructions: 89000001 cycles: 115990211 heartbeat IPC: 0.70519 cumulative IPC: 0.704391 (Simulation time: 3 hr 52 min 41 sec) 
Heartbeat CPU 0 instructions: 90000000 cycles: 117416124 heartbeat IPC: 0.701304 cumulative IPC: 0.704352 (Simulation time: 3 hr 55 min 23 sec) 
Heartbeat CPU 0 instructions: 91000001 cycles: 118842198 heartbeat IPC: 0.701227 cumulative IPC: 0.704314 (Simulation time: 3 hr 58 min 0 sec) 
Heartbeat CPU 0 instructions: 92000000 cycles: 123308536 heartbeat IPC: 0.223897 cumulative IPC: 0.686354 (Simulation time: 4 hr 2 min 56 sec) 
Heartbeat CPU 0 instructions: 93000000 cycles: 127975039 heartbeat IPC: 0.214293 cumulative IPC: 0.668608 (Simulation time: 4 hr 7 min 42 sec) 
Heartbeat CPU 0 instructions: 94000002 cycles: 131224349 heartbeat IPC: 0.307758 cumulative IPC: 0.659404 (Simulation time: 4 hr 11 min 33 sec) 
Heartbeat CPU 0 instructions: 95000000 cycles: 132614935 heartbeat IPC: 0.71912 cumulative IPC: 0.660049 (Simulation time: 4 hr 14 min 2 sec) 
Heartbeat CPU 0 instructions: 96000000 cycles: 133977480 heartbeat IPC: 0.733921 cumulative IPC: 0.660822 (Simulation time: 4 hr 16 min 15 sec) 
Heartbeat CPU 0 instructions: 97000002 cycles: 135241898 heartbeat IPC: 0.790879 cumulative IPC: 0.662074 (Simulation time: 4 hr 18 min 18 sec) 
Heartbeat CPU 0 instructions: 98000003 cycles: 136494321 heartbeat IPC: 0.798453 cumulative IPC: 0.663361 (Simulation time: 4 hr 20 min 20 sec) 
Heartbeat CPU 0 instructions: 99000000 cycles: 137756563 heartbeat IPC: 0.792239 cumulative IPC: 0.664576 (Simulation time: 4 hr 22 min 17 sec) 
Heartbeat CPU 0 instructions: 100000000 cycles: 139016201 heartbeat IPC: 0.793879 cumulative IPC: 0.665781 (Simulation time: 4 hr 24 min 5 sec) 
Heartbeat CPU 0 instructions: 101000001 cycles: 140275923 heartbeat IPC: 0.793827 cumulative IPC: 0.666963 (Simulation time: 4 hr 25 min 51 sec) 
Heartbeat CPU 0 instructions: 102000000 cycles: 141536916 heartbeat IPC: 0.793025 cumulative IPC: 0.668118 (Simulation time: 4 hr 27 min 26 sec) 
Heartbeat CPU 0 instructions: 103000002 cycles: 142794569 heartbeat IPC: 0.795133 cumulative IPC: 0.669267 (Simulation time: 4 hr 28 min 58 sec) 
Heartbeat CPU 0 instructions: 104000000 cycles: 144055385 heartbeat IPC: 0.793136 cumulative IPC: 0.670381 (Simulation time: 4 hr 30 min 23 sec) 
Heartbeat CPU 0 instructions: 105000003 cycles: 145314451 heartbeat IPC: 0.794242 cumulative IPC: 0.671483 (Simulation time: 4 hr 31 min 44 sec) 
Heartbeat CPU 0 instructions: 106000002 cycles: 146572731 heartbeat IPC: 0.794735 cumulative IPC: 0.67257 (Simulation time: 4 hr 33 min 10 sec) 
Heartbeat CPU 0 instructions: 107000002 cycles: 147832007 heartbeat IPC: 0.794107 cumulative IPC: 0.673633 (Simulation time: 4 hr 34 min 29 sec) 
Heartbeat CPU 0 instructions: 108000000 cycles: 149093827 heartbeat IPC: 0.792504 cumulative IPC: 0.674665 (Simulation time: 4 hr 35 min 47 sec) 
Heartbeat CPU 0 instructions: 109000001 cycles: 150350745 heartbeat IPC: 0.795598 cumulative IPC: 0.675703 (Simulation time: 4 hr 37 min 1 sec) 
Heartbeat CPU 0 instructions: 110000001 cycles: 151609045 heartbeat IPC: 0.794723 cumulative IPC: 0.676716 (Simulation time: 4 hr 38 min 16 sec) 
Finished CPU 0 instructions: 100000003 cycles: 147772435 cummulative IPC: 0.676716 (Simulation time: 4 hr 38 min 16 sec) 

ChampSim completed all CPUs

Region of Interest Statistics

CPU 0 cummulative IPC: 0.676716 instructions: 100000003 cycles: 147772435
LLC TOTAL     ACCESS:    2872436  HIT:     118641  MISS:    2753795
LLC LOAD      ACCESS:     739157  HIT:         38  MISS:     739119
LLC RFO       ACCESS:     423298  HIT:          8  MISS:     423290
LLC PREFETCH  ACCESS:    1009263  HIT:       1210  MISS:    1008053
LLC WRITEBACK ACCESS:     700718  HIT:     117385  MISS:     583333
Insertion Distribution: 
	LOAD 0 0 149411 635826 
	RFO 0 0 69841 353450 
	PREF 0 0 204076 943657 
	WRITEBACK 0 0 0 607102 
Total Prefetch Downgrades: 1
