
*** ChampSim Multicore Out-of-Order Simulator ***

Warmup Instructions: 10000000
Simulation Instructions: 100000000
Configuration: 2
Number of CPUs: 1
LLC sets: 2048
LLC ways: 16
Off-chip DRAM Channels: 1 Width: 64-bit Data Rate: 1600 MT/s

CPU 0 runs /datasets/cs240c-wi22-a00-public/data/Assignment2-gz/sphinx3_883B.trace.gz
CPU 0 L1D next line prefetcher
CPU 0 L2C IP-based stride prefetcher
Initialize SRRIP state
Heartbeat CPU 0 instructions: 1000003 cycles: 414388 heartbeat IPC: 2.4132 cumulative IPC: 2.4132 (Simulation time: 0 hr 2 min 44 sec) 
Heartbeat CPU 0 instructions: 2000000 cycles: 823946 heartbeat IPC: 2.44165 cumulative IPC: 2.42734 (Simulation time: 0 hr 5 min 7 sec) 
Heartbeat CPU 0 instructions: 3000003 cycles: 1298785 heartbeat IPC: 2.10598 cumulative IPC: 2.30985 (Simulation time: 0 hr 7 min 31 sec) 
Heartbeat CPU 0 instructions: 4000000 cycles: 1637675 heartbeat IPC: 2.9508 cumulative IPC: 2.44249 (Simulation time: 0 hr 9 min 47 sec) 
Heartbeat CPU 0 instructions: 5000000 cycles: 1992332 heartbeat IPC: 2.81963 cumulative IPC: 2.50962 (Simulation time: 0 hr 12 min 20 sec) 
Heartbeat CPU 0 instructions: 6000003 cycles: 2406757 heartbeat IPC: 2.41299 cumulative IPC: 2.49298 (Simulation time: 0 hr 14 min 44 sec) 
Heartbeat CPU 0 instructions: 7000002 cycles: 2815536 heartbeat IPC: 2.44631 cumulative IPC: 2.48621 (Simulation time: 0 hr 17 min 0 sec) 
Heartbeat CPU 0 instructions: 8000000 cycles: 3291793 heartbeat IPC: 2.0997 cumulative IPC: 2.43029 (Simulation time: 0 hr 19 min 17 sec) 
Heartbeat CPU 0 instructions: 9000001 cycles: 3630791 heartbeat IPC: 2.94987 cumulative IPC: 2.4788 (Simulation time: 0 hr 21 min 23 sec) 
Heartbeat CPU 0 instructions: 10000000 cycles: 3984873 heartbeat IPC: 2.8242 cumulative IPC: 2.50949 (Simulation time: 0 hr 23 min 42 sec) 

Warmup complete CPU 0 instructions: 10000004 cycles: 3984874 (Simulation time: 0 hr 23 min 42 sec) 

Heartbeat CPU 0 instructions: 11000002 cycles: 5701784 heartbeat IPC: 0.582443 cumulative IPC: 0.582441 (Simulation time: 0 hr 26 min 33 sec) 
Heartbeat CPU 0 instructions: 12000000 cycles: 7341627 heartbeat IPC: 0.609813 cumulative IPC: 0.595813 (Simulation time: 0 hr 29 min 29 sec) 
Heartbeat CPU 0 instructions: 13000001 cycles: 8564834 heartbeat IPC: 0.817524 cumulative IPC: 0.655027 (Simulation time: 0 hr 32 min 14 sec) 
Heartbeat CPU 0 instructions: 14000002 cycles: 9411485 heartbeat IPC: 1.18113 cumulative IPC: 0.737108 (Simulation time: 0 hr 34 min 31 sec) 
Heartbeat CPU 0 instructions: 15000000 cycles: 10298454 heartbeat IPC: 1.12743 cumulative IPC: 0.791943 (Simulation time: 0 hr 36 min 58 sec) 
Heartbeat CPU 0 instructions: 16000000 cycles: 11904585 heartbeat IPC: 0.622614 cumulative IPC: 0.757603 (Simulation time: 0 hr 39 min 47 sec) 
Heartbeat CPU 0 instructions: 17000000 cycles: 13476344 heartbeat IPC: 0.63623 cumulative IPC: 0.737504 (Simulation time: 0 hr 42 min 23 sec) 
Heartbeat CPU 0 instructions: 18000002 cycles: 14781327 heartbeat IPC: 0.766295 cumulative IPC: 0.740984 (Simulation time: 0 hr 45 min 5 sec) 
Heartbeat CPU 0 instructions: 19000001 cycles: 15679172 heartbeat IPC: 1.11378 cumulative IPC: 0.769606 (Simulation time: 0 hr 47 min 23 sec) 
Heartbeat CPU 0 instructions: 20000000 cycles: 16518940 heartbeat IPC: 1.1908 cumulative IPC: 0.797825 (Simulation time: 0 hr 49 min 50 sec) 
Heartbeat CPU 0 instructions: 21000000 cycles: 18047603 heartbeat IPC: 0.654166 cumulative IPC: 0.782209 (Simulation time: 0 hr 52 min 18 sec) 
Heartbeat CPU 0 instructions: 22000002 cycles: 19636089 heartbeat IPC: 0.629532 cumulative IPC: 0.766714 (Simulation time: 0 hr 54 min 47 sec) 
Heartbeat CPU 0 instructions: 23000001 cycles: 21155150 heartbeat IPC: 0.658301 cumulative IPC: 0.757122 (Simulation time: 0 hr 57 min 18 sec) 
Heartbeat CPU 0 instructions: 24000000 cycles: 22083388 heartbeat IPC: 1.07731 cumulative IPC: 0.773544 (Simulation time: 0 hr 59 min 54 sec) 
Heartbeat CPU 0 instructions: 25000003 cycles: 22975106 heartbeat IPC: 1.12143 cumulative IPC: 0.78988 (Simulation time: 1 hr 2 min 27 sec) 
Heartbeat CPU 0 instructions: 26000001 cycles: 24213105 heartbeat IPC: 0.807754 cumulative IPC: 0.790974 (Simulation time: 1 hr 5 min 4 sec) 
Heartbeat CPU 0 instructions: 27000001 cycles: 25748683 heartbeat IPC: 0.651221 cumulative IPC: 0.781113 (Simulation time: 1 hr 7 min 38 sec) 
Heartbeat CPU 0 instructions: 28000000 cycles: 27295970 heartbeat IPC: 0.646292 cumulative IPC: 0.772164 (Simulation time: 1 hr 10 min 21 sec) 
Heartbeat CPU 0 instructions: 29000000 cycles: 28337438 heartbeat IPC: 0.960183 cumulative IPC: 0.780205 (Simulation time: 1 hr 12 min 46 sec) 
Heartbeat CPU 0 instructions: 30000002 cycles: 29210290 heartbeat IPC: 1.14567 cumulative IPC: 0.792851 (Simulation time: 1 hr 15 min 16 sec) 
Heartbeat CPU 0 instructions: 31000003 cycles: 30321994 heartbeat IPC: 0.899521 cumulative IPC: 0.797354 (Simulation time: 1 hr 18 min 6 sec) 
Heartbeat CPU 0 instructions: 32000000 cycles: 31842687 heartbeat IPC: 0.657593 cumulative IPC: 0.789724 (Simulation time: 1 hr 20 min 42 sec) 
Heartbeat CPU 0 instructions: 33000000 cycles: 33313281 heartbeat IPC: 0.679997 cumulative IPC: 0.784222 (Simulation time: 1 hr 23 min 27 sec) 
Heartbeat CPU 0 instructions: 34000000 cycles: 34451391 heartbeat IPC: 0.87865 cumulative IPC: 0.78775 (Simulation time: 1 hr 26 min 5 sec) 
Heartbeat CPU 0 instructions: 35000003 cycles: 35327293 heartbeat IPC: 1.14168 cumulative IPC: 0.797641 (Simulation time: 1 hr 28 min 51 sec) 
Heartbeat CPU 0 instructions: 36000000 cycles: 36389683 heartbeat IPC: 0.941271 cumulative IPC: 0.80235 (Simulation time: 1 hr 31 min 31 sec) 
Heartbeat CPU 0 instructions: 37000001 cycles: 37924210 heartbeat IPC: 0.651667 cumulative IPC: 0.795537 (Simulation time: 1 hr 34 min 32 sec) 
Heartbeat CPU 0 instructions: 38000000 cycles: 39394154 heartbeat IPC: 0.680297 cumulative IPC: 0.790753 (Simulation time: 1 hr 37 min 13 sec) 
Heartbeat CPU 0 instructions: 39000003 cycles: 40525341 heartbeat IPC: 0.88403 cumulative IPC: 0.793641 (Simulation time: 1 hr 40 min 0 sec) 
Heartbeat CPU 0 instructions: 40000000 cycles: 41401739 heartbeat IPC: 1.14103 cumulative IPC: 0.801777 (Simulation time: 1 hr 42 min 32 sec) 
Heartbeat CPU 0 instructions: 41000003 cycles: 42448264 heartbeat IPC: 0.955546 cumulative IPC: 0.805961 (Simulation time: 1 hr 45 min 7 sec) 
Heartbeat CPU 0 instructions: 42000000 cycles: 43990079 heartbeat IPC: 0.648584 cumulative IPC: 0.799896 (Simulation time: 1 hr 47 min 50 sec) 
Heartbeat CPU 0 instructions: 43000003 cycles: 45476424 heartbeat IPC: 0.672793 cumulative IPC: 0.795343 (Simulation time: 1 hr 50 min 45 sec) 
Heartbeat CPU 0 instructions: 44000000 cycles: 46535989 heartbeat IPC: 0.943781 cumulative IPC: 0.799039 (Simulation time: 1 hr 53 min 15 sec) 
Heartbeat CPU 0 instructions: 45000002 cycles: 47413424 heartbeat IPC: 1.13969 cumulative IPC: 0.805921 (Simulation time: 1 hr 55 min 42 sec) 
Heartbeat CPU 0 instructions: 46000001 cycles: 48492383 heartbeat IPC: 0.926818 cumulative IPC: 0.808852 (Simulation time: 1 hr 58 min 21 sec) 
Heartbeat CPU 0 instructions: 47000002 cycles: 50020619 heartbeat IPC: 0.65435 cumulative IPC: 0.803723 (Simulation time: 2 hr 0 min 52 sec) 
Heartbeat CPU 0 instructions: 48000000 cycles: 51518229 heartbeat IPC: 0.667729 cumulative IPC: 0.799439 (Simulation time: 2 hr 3 min 30 sec) 
Heartbeat CPU 0 instructions: 49000001 cycles: 52495370 heartbeat IPC: 1.02339 cumulative IPC: 0.80395 (Simulation time: 2 hr 5 min 53 sec) 
Heartbeat CPU 0 instructions: 50000000 cycles: 53365376 heartbeat IPC: 1.14942 cumulative IPC: 0.810036 (Simulation time: 2 hr 8 min 21 sec) 
Heartbeat CPU 0 instructions: 51000003 cycles: 54470756 heartbeat IPC: 0.904669 cumulative IPC: 0.812108 (Simulation time: 2 hr 10 min 53 sec) 
Heartbeat CPU 0 instructions: 52000000 cycles: 56011940 heartbeat IPC: 0.64885 cumulative IPC: 0.807272 (Simulation time: 2 hr 13 min 38 sec) 
Heartbeat CPU 0 instructions: 53000000 cycles: 57722095 heartbeat IPC: 0.584742 cumulative IPC: 0.80019 (Simulation time: 2 hr 16 min 30 sec) 
Heartbeat CPU 0 instructions: 54000003 cycles: 59006227 heartbeat IPC: 0.778738 cumulative IPC: 0.79969 (Simulation time: 2 hr 19 min 17 sec) 
Heartbeat CPU 0 instructions: 55000003 cycles: 59900176 heartbeat IPC: 1.11863 cumulative IPC: 0.804789 (Simulation time: 2 hr 21 min 51 sec) 
Heartbeat CPU 0 instructions: 56000000 cycles: 60793231 heartbeat IPC: 1.11975 cumulative IPC: 0.80974 (Simulation time: 2 hr 24 min 17 sec) 
Heartbeat CPU 0 instructions: 57000002 cycles: 61960208 heartbeat IPC: 0.856917 cumulative IPC: 0.81069 (Simulation time: 2 hr 26 min 53 sec) 
Heartbeat CPU 0 instructions: 58000001 cycles: 63006977 heartbeat IPC: 0.95532 cumulative IPC: 0.813255 (Simulation time: 2 hr 29 min 34 sec) 
Heartbeat CPU 0 instructions: 59000003 cycles: 63888708 heartbeat IPC: 1.13414 cumulative IPC: 0.817978 (Simulation time: 2 hr 31 min 54 sec) 
Heartbeat CPU 0 instructions: 60000000 cycles: 64783816 heartbeat IPC: 1.11718 cumulative IPC: 0.822383 (Simulation time: 2 hr 34 min 36 sec) 
Heartbeat CPU 0 instructions: 61000001 cycles: 65938652 heartbeat IPC: 0.865925 cumulative IPC: 0.823194 (Simulation time: 2 hr 36 min 59 sec) 
Heartbeat CPU 0 instructions: 62000001 cycles: 66805126 heartbeat IPC: 1.1541 cumulative IPC: 0.827758 (Simulation time: 2 hr 39 min 23 sec) 
Heartbeat CPU 0 instructions: 63000003 cycles: 67652397 heartbeat IPC: 1.18026 cumulative IPC: 0.832449 (Simulation time: 2 hr 41 min 57 sec) 
Heartbeat CPU 0 instructions: 64000000 cycles: 68854621 heartbeat IPC: 0.831789 cumulative IPC: 0.832437 (Simulation time: 2 hr 44 min 50 sec) 
Heartbeat CPU 0 instructions: 65000003 cycles: 69750267 heartbeat IPC: 1.11652 cumulative IPC: 0.836306 (Simulation time: 2 hr 47 min 36 sec) 
Heartbeat CPU 0 instructions: 66000002 cycles: 70598808 heartbeat IPC: 1.17849 cumulative IPC: 0.840665 (Simulation time: 2 hr 50 min 5 sec) 
Heartbeat CPU 0 instructions: 67000000 cycles: 71824803 heartbeat IPC: 0.815662 cumulative IPC: 0.840213 (Simulation time: 2 hr 52 min 50 sec) 
Heartbeat CPU 0 instructions: 68000000 cycles: 73487512 heartbeat IPC: 0.601428 cumulative IPC: 0.834501 (Simulation time: 2 hr 55 min 39 sec) 
Heartbeat CPU 0 instructions: 69000003 cycles: 74368350 heartbeat IPC: 1.13529 cumulative IPC: 0.838265 (Simulation time: 2 hr 58 min 4 sec) 
Heartbeat CPU 0 instructions: 70000000 cycles: 75229645 heartbeat IPC: 1.16104 cumulative IPC: 0.842167 (Simulation time: 3 hr 0 min 25 sec) 
Heartbeat CPU 0 instructions: 71000000 cycles: 76343028 heartbeat IPC: 0.898163 cumulative IPC: 0.843029 (Simulation time: 3 hr 3 min 21 sec) 
Heartbeat CPU 0 instructions: 72000000 cycles: 77756078 heartbeat IPC: 0.707689 cumulative IPC: 0.840436 (Simulation time: 3 hr 6 min 6 sec) 
Heartbeat CPU 0 instructions: 73000000 cycles: 78628510 heartbeat IPC: 1.14622 cumulative IPC: 0.84401 (Simulation time: 3 hr 8 min 43 sec) 
Heartbeat CPU 0 instructions: 74000002 cycles: 79480483 heartbeat IPC: 1.17375 cumulative IPC: 0.847731 (Simulation time: 3 hr 11 min 34 sec) 
Heartbeat CPU 0 instructions: 75000000 cycles: 80633637 heartbeat IPC: 0.867185 cumulative IPC: 0.848024 (Simulation time: 3 hr 14 min 9 sec) 
Heartbeat CPU 0 instructions: 76000000 cycles: 81875752 heartbeat IPC: 0.805078 cumulative IPC: 0.847339 (Simulation time: 3 hr 16 min 38 sec) 
Heartbeat CPU 0 instructions: 77000003 cycles: 82758783 heartbeat IPC: 1.13247 cumulative IPC: 0.850535 (Simulation time: 3 hr 19 min 11 sec) 
Heartbeat CPU 0 instructions: 78000003 cycles: 83590284 heartbeat IPC: 1.20264 cumulative IPC: 0.854213 (Simulation time: 3 hr 21 min 29 sec) 
Heartbeat CPU 0 instructions: 79000001 cycles: 84858003 heartbeat IPC: 0.788817 cumulative IPC: 0.853188 (Simulation time: 3 hr 23 min 52 sec) 
Heartbeat CPU 0 instructions: 80000000 cycles: 85978586 heartbeat IPC: 0.892392 cumulative IPC: 0.853724 (Simulation time: 3 hr 26 min 26 sec) 
Heartbeat CPU 0 instructions: 81000000 cycles: 86846329 heartbeat IPC: 1.15241 cumulative IPC: 0.856852 (Simulation time: 3 hr 29 min 0 sec) 
Heartbeat CPU 0 instructions: 82000000 cycles: 87663109 heartbeat IPC: 1.22432 cumulative IPC: 0.860439 (Simulation time: 3 hr 31 min 29 sec) 
Heartbeat CPU 0 instructions: 83000000 cycles: 89021322 heartbeat IPC: 0.736262 cumulative IPC: 0.858455 (Simulation time: 3 hr 34 min 20 sec) 
Heartbeat CPU 0 instructions: 84000000 cycles: 89934887 heartbeat IPC: 1.09461 cumulative IPC: 0.860965 (Simulation time: 3 hr 36 min 56 sec) 
Heartbeat CPU 0 instructions: 85000001 cycles: 90767055 heartbeat IPC: 1.20168 cumulative IPC: 0.864233 (Simulation time: 3 hr 39 min 29 sec) 
Heartbeat CPU 0 instructions: 86000001 cycles: 91753610 heartbeat IPC: 1.01363 cumulative IPC: 0.865912 (Simulation time: 3 hr 41 min 49 sec) 
Heartbeat CPU 0 instructions: 87000000 cycles: 92907297 heartbeat IPC: 0.866785 cumulative IPC: 0.865923 (Simulation time: 3 hr 44 min 16 sec) 
Heartbeat CPU 0 instructions: 88000000 cycles: 93769731 heartbeat IPC: 1.15951 cumulative IPC: 0.868743 (Simulation time: 3 hr 46 min 49 sec) 
Heartbeat CPU 0 instructions: 89000000 cycles: 94567194 heartbeat IPC: 1.25398 cumulative IPC: 0.872135 (Simulation time: 3 hr 49 min 3 sec) 
Heartbeat CPU 0 instructions: 90000000 cycles: 95820015 heartbeat IPC: 0.798199 cumulative IPC: 0.871126 (Simulation time: 3 hr 51 min 34 sec) 
Heartbeat CPU 0 instructions: 91000003 cycles: 97078525 heartbeat IPC: 0.794593 cumulative IPC: 0.870092 (Simulation time: 3 hr 54 min 8 sec) 
Heartbeat CPU 0 instructions: 92000000 cycles: 98029529 heartbeat IPC: 1.05152 cumulative IPC: 0.871926 (Simulation time: 3 hr 56 min 38 sec) 
Heartbeat CPU 0 instructions: 93000000 cycles: 98859346 heartbeat IPC: 1.20508 cumulative IPC: 0.87484 (Simulation time: 3 hr 59 min 1 sec) 
Heartbeat CPU 0 instructions: 94000002 cycles: 99670093 heartbeat IPC: 1.23343 cumulative IPC: 0.877878 (Simulation time: 4 hr 1 min 9 sec) 
Heartbeat CPU 0 instructions: 95000001 cycles: 101004149 heartbeat IPC: 0.749593 cumulative IPC: 0.876115 (Simulation time: 4 hr 3 min 37 sec) 
Heartbeat CPU 0 instructions: 96000000 cycles: 101858821 heartbeat IPC: 1.17004 cumulative IPC: 0.878681 (Simulation time: 4 hr 6 min 1 sec) 
Heartbeat CPU 0 instructions: 97000000 cycles: 102680585 heartbeat IPC: 1.21689 cumulative IPC: 0.881497 (Simulation time: 4 hr 8 min 19 sec) 
Heartbeat CPU 0 instructions: 98000003 cycles: 103804273 heartbeat IPC: 0.889929 cumulative IPC: 0.881592 (Simulation time: 4 hr 11 min 2 sec) 
Heartbeat CPU 0 instructions: 99000000 cycles: 104852228 heartbeat IPC: 0.954237 cumulative IPC: 0.882347 (Simulation time: 4 hr 13 min 23 sec) 
Heartbeat CPU 0 instructions: 100000000 cycles: 105676342 heartbeat IPC: 1.21342 cumulative IPC: 0.88503 (Simulation time: 4 hr 15 min 35 sec) 
Heartbeat CPU 0 instructions: 101000000 cycles: 106482180 heartbeat IPC: 1.24094 cumulative IPC: 0.887828 (Simulation time: 4 hr 17 min 46 sec) 
Heartbeat CPU 0 instructions: 102000003 cycles: 107897352 heartbeat IPC: 0.70663 cumulative IPC: 0.88536 (Simulation time: 4 hr 19 min 59 sec) 
Heartbeat CPU 0 instructions: 103000001 cycles: 108841173 heartbeat IPC: 1.05952 cumulative IPC: 0.886928 (Simulation time: 4 hr 22 min 2 sec) 
Heartbeat CPU 0 instructions: 104000000 cycles: 109656380 heartbeat IPC: 1.22668 cumulative IPC: 0.889549 (Simulation time: 4 hr 24 min 5 sec) 
Heartbeat CPU 0 instructions: 105000002 cycles: 110697620 heartbeat IPC: 0.960395 cumulative IPC: 0.89024 (Simulation time: 4 hr 26 min 5 sec) 
Heartbeat CPU 0 instructions: 106000003 cycles: 112147498 heartbeat IPC: 0.689714 cumulative IPC: 0.887552 (Simulation time: 4 hr 28 min 1 sec) 
Heartbeat CPU 0 instructions: 107000001 cycles: 113010052 heartbeat IPC: 1.15935 cumulative IPC: 0.889703 (Simulation time: 4 hr 29 min 40 sec) 
Heartbeat CPU 0 instructions: 108000000 cycles: 113831393 heartbeat IPC: 1.21752 cumulative IPC: 0.892154 (Simulation time: 4 hr 31 min 16 sec) 
Heartbeat CPU 0 instructions: 109000001 cycles: 114925217 heartbeat IPC: 0.914225 cumulative IPC: 0.892371 (Simulation time: 4 hr 32 min 52 sec) 
Heartbeat CPU 0 instructions: 110000000 cycles: 116255980 heartbeat IPC: 0.751448 cumulative IPC: 0.890701 (Simulation time: 4 hr 34 min 29 sec) 
Finished CPU 0 instructions: 100000000 cycles: 112271107 cummulative IPC: 0.890701 (Simulation time: 4 hr 34 min 29 sec) 

ChampSim completed all CPUs

Region of Interest Statistics

CPU 0 cummulative IPC: 0.890701 instructions: 100000000 cycles: 112271107
LLC TOTAL     ACCESS:    1795740  HIT:     763395  MISS:    1032345
LLC LOAD      ACCESS:     314603  HIT:     236401  MISS:      78202
LLC RFO       ACCESS:      99610  HIT:      86666  MISS:      12944
LLC PREFETCH  ACCESS:    1240105  HIT:     302553  MISS:     937552
LLC WRITEBACK ACCESS:     141422  HIT:     137775  MISS:       3647
Insertion Distribution: 
	LOAD 11691 0 46041 45531 
	RFO 10474 0 5474 1184 
	PREF 0 2604 178967 867378 
	WRITEBACK 0 0 0 4932 
Total Prefetch Downgrades: 5790
