
*** ChampSim Multicore Out-of-Order Simulator ***

Warmup Instructions: 10000000
Simulation Instructions: 100000000
Configuration: 2
Number of CPUs: 1
LLC sets: 2048
LLC ways: 16
Off-chip DRAM Channels: 1 Width: 64-bit Data Rate: 1600 MT/s

CPU 0 runs /datasets/cs240c-wi22-a00-public/data/Assignment2-gz/omnetpp_4B.trace.gz
CPU 0 L1D next line prefetcher
CPU 0 L2C IP-based stride prefetcher
Initialize SRRIP state
Heartbeat CPU 0 instructions: 1000001 cycles: 566988 heartbeat IPC: 1.76371 cumulative IPC: 1.76371 (Simulation time: 0 hr 2 min 21 sec) 
Heartbeat CPU 0 instructions: 2000001 cycles: 1135687 heartbeat IPC: 1.7584 cumulative IPC: 1.76105 (Simulation time: 0 hr 4 min 29 sec) 
Heartbeat CPU 0 instructions: 3000001 cycles: 1722848 heartbeat IPC: 1.70311 cumulative IPC: 1.7413 (Simulation time: 0 hr 6 min 43 sec) 
Heartbeat CPU 0 instructions: 4000000 cycles: 2292099 heartbeat IPC: 1.75669 cumulative IPC: 1.74513 (Simulation time: 0 hr 8 min 52 sec) 
Heartbeat CPU 0 instructions: 5000000 cycles: 2866252 heartbeat IPC: 1.7417 cumulative IPC: 1.74444 (Simulation time: 0 hr 11 min 2 sec) 
Heartbeat CPU 0 instructions: 6000000 cycles: 3442434 heartbeat IPC: 1.73556 cumulative IPC: 1.74295 (Simulation time: 0 hr 13 min 9 sec) 
Heartbeat CPU 0 instructions: 7000000 cycles: 4011739 heartbeat IPC: 1.75653 cumulative IPC: 1.74488 (Simulation time: 0 hr 15 min 13 sec) 
Heartbeat CPU 0 instructions: 8000000 cycles: 4565216 heartbeat IPC: 1.80676 cumulative IPC: 1.75238 (Simulation time: 0 hr 17 min 19 sec) 
Heartbeat CPU 0 instructions: 9000001 cycles: 5147323 heartbeat IPC: 1.7179 cumulative IPC: 1.74848 (Simulation time: 0 hr 19 min 35 sec) 
Heartbeat CPU 0 instructions: 10000000 cycles: 5701294 heartbeat IPC: 1.80515 cumulative IPC: 1.75399 (Simulation time: 0 hr 21 min 46 sec) 

Warmup complete CPU 0 instructions: 10000003 cycles: 5701295 (Simulation time: 0 hr 21 min 46 sec) 

Heartbeat CPU 0 instructions: 11000000 cycles: 8873436 heartbeat IPC: 0.315244 cumulative IPC: 0.315244 (Simulation time: 0 hr 24 min 20 sec) 
Heartbeat CPU 0 instructions: 12000000 cycles: 10028946 heartbeat IPC: 0.865419 cumulative IPC: 0.462144 (Simulation time: 0 hr 26 min 13 sec) 
Heartbeat CPU 0 instructions: 13000003 cycles: 11173904 heartbeat IPC: 0.873397 cumulative IPC: 0.548185 (Simulation time: 0 hr 28 min 8 sec) 
Heartbeat CPU 0 instructions: 14000000 cycles: 12294173 heartbeat IPC: 0.89264 cumulative IPC: 0.606715 (Simulation time: 0 hr 30 min 1 sec) 
Heartbeat CPU 0 instructions: 15000000 cycles: 13433393 heartbeat IPC: 0.877794 cumulative IPC: 0.646655 (Simulation time: 0 hr 32 min 4 sec) 
Heartbeat CPU 0 instructions: 16000000 cycles: 16284444 heartbeat IPC: 0.350748 cumulative IPC: 0.566939 (Simulation time: 0 hr 34 min 18 sec) 
Heartbeat CPU 0 instructions: 17000003 cycles: 19137783 heartbeat IPC: 0.350468 cumulative IPC: 0.520969 (Simulation time: 0 hr 36 min 47 sec) 
Heartbeat CPU 0 instructions: 18000002 cycles: 21912078 heartbeat IPC: 0.360452 cumulative IPC: 0.493499 (Simulation time: 0 hr 39 min 1 sec) 
Heartbeat CPU 0 instructions: 19000002 cycles: 24720920 heartbeat IPC: 0.356019 cumulative IPC: 0.473195 (Simulation time: 0 hr 41 min 22 sec) 
Heartbeat CPU 0 instructions: 20000000 cycles: 28054205 heartbeat IPC: 0.300004 cumulative IPC: 0.447369 (Simulation time: 0 hr 43 min 48 sec) 
Heartbeat CPU 0 instructions: 21000000 cycles: 31380147 heartbeat IPC: 0.300667 cumulative IPC: 0.428368 (Simulation time: 0 hr 46 min 19 sec) 
Heartbeat CPU 0 instructions: 22000001 cycles: 34573422 heartbeat IPC: 0.313158 cumulative IPC: 0.415626 (Simulation time: 0 hr 48 min 41 sec) 
Heartbeat CPU 0 instructions: 23000000 cycles: 37411116 heartbeat IPC: 0.352398 cumulative IPC: 0.409968 (Simulation time: 0 hr 51 min 5 sec) 
Heartbeat CPU 0 instructions: 24000000 cycles: 40196834 heartbeat IPC: 0.358974 cumulative IPC: 0.405849 (Simulation time: 0 hr 53 min 24 sec) 
Heartbeat CPU 0 instructions: 25000000 cycles: 42980006 heartbeat IPC: 0.359302 cumulative IPC: 0.402374 (Simulation time: 0 hr 55 min 34 sec) 
Heartbeat CPU 0 instructions: 26000002 cycles: 45752766 heartbeat IPC: 0.360652 cumulative IPC: 0.399486 (Simulation time: 0 hr 58 min 3 sec) 
Heartbeat CPU 0 instructions: 27000001 cycles: 48570362 heartbeat IPC: 0.354912 cumulative IPC: 0.396556 (Simulation time: 1 hr 0 min 22 sec) 
Heartbeat CPU 0 instructions: 28000000 cycles: 51333289 heartbeat IPC: 0.361935 cumulative IPC: 0.39446 (Simulation time: 1 hr 2 min 35 sec) 
Heartbeat CPU 0 instructions: 29000001 cycles: 54175705 heartbeat IPC: 0.351814 cumulative IPC: 0.391959 (Simulation time: 1 hr 4 min 54 sec) 
Heartbeat CPU 0 instructions: 30000000 cycles: 56958179 heartbeat IPC: 0.359392 cumulative IPC: 0.390191 (Simulation time: 1 hr 7 min 7 sec) 
Heartbeat CPU 0 instructions: 31000002 cycles: 59727916 heartbeat IPC: 0.361046 cumulative IPC: 0.388697 (Simulation time: 1 hr 9 min 30 sec) 
Heartbeat CPU 0 instructions: 32000000 cycles: 62545307 heartbeat IPC: 0.354938 cumulative IPC: 0.387024 (Simulation time: 1 hr 11 min 57 sec) 
Heartbeat CPU 0 instructions: 33000000 cycles: 65706906 heartbeat IPC: 0.316296 cumulative IPC: 0.383297 (Simulation time: 1 hr 14 min 18 sec) 
Heartbeat CPU 0 instructions: 34000001 cycles: 69011855 heartbeat IPC: 0.302577 cumulative IPC: 0.379084 (Simulation time: 1 hr 16 min 36 sec) 
Heartbeat CPU 0 instructions: 35000001 cycles: 72039449 heartbeat IPC: 0.330295 cumulative IPC: 0.376857 (Simulation time: 1 hr 18 min 59 sec) 
Heartbeat CPU 0 instructions: 36000000 cycles: 75334510 heartbeat IPC: 0.303484 cumulative IPC: 0.373385 (Simulation time: 1 hr 21 min 19 sec) 
Heartbeat CPU 0 instructions: 37000001 cycles: 78131763 heartbeat IPC: 0.357494 cumulative IPC: 0.372771 (Simulation time: 1 hr 23 min 37 sec) 
Heartbeat CPU 0 instructions: 38000001 cycles: 81325243 heartbeat IPC: 0.313138 cumulative IPC: 0.370253 (Simulation time: 1 hr 26 min 20 sec) 
Heartbeat CPU 0 instructions: 39000001 cycles: 83855402 heartbeat IPC: 0.395232 cumulative IPC: 0.371062 (Simulation time: 1 hr 28 min 24 sec) 
Heartbeat CPU 0 instructions: 40000000 cycles: 84977455 heartbeat IPC: 0.891223 cumulative IPC: 0.378424 (Simulation time: 1 hr 30 min 24 sec) 
Heartbeat CPU 0 instructions: 41000001 cycles: 86103717 heartbeat IPC: 0.887894 cumulative IPC: 0.385561 (Simulation time: 1 hr 32 min 25 sec) 
Heartbeat CPU 0 instructions: 42000001 cycles: 87238035 heartbeat IPC: 0.881587 cumulative IPC: 0.392461 (Simulation time: 1 hr 34 min 23 sec) 
Heartbeat CPU 0 instructions: 43000002 cycles: 88444725 heartbeat IPC: 0.828714 cumulative IPC: 0.398823 (Simulation time: 1 hr 36 min 17 sec) 
Heartbeat CPU 0 instructions: 44000000 cycles: 91346185 heartbeat IPC: 0.344653 cumulative IPC: 0.396988 (Simulation time: 1 hr 38 min 37 sec) 
Heartbeat CPU 0 instructions: 45000000 cycles: 94233289 heartbeat IPC: 0.346368 cumulative IPC: 0.395337 (Simulation time: 1 hr 40 min 59 sec) 
Heartbeat CPU 0 instructions: 46000000 cycles: 97586193 heartbeat IPC: 0.298249 cumulative IPC: 0.391795 (Simulation time: 1 hr 43 min 24 sec) 
Heartbeat CPU 0 instructions: 47000000 cycles: 100911696 heartbeat IPC: 0.300706 cumulative IPC: 0.388613 (Simulation time: 1 hr 45 min 49 sec) 
Heartbeat CPU 0 instructions: 48000000 cycles: 104069938 heartbeat IPC: 0.316632 cumulative IPC: 0.386302 (Simulation time: 1 hr 48 min 10 sec) 
Heartbeat CPU 0 instructions: 49000000 cycles: 106965869 heartbeat IPC: 0.345312 cumulative IPC: 0.38513 (Simulation time: 1 hr 50 min 34 sec) 
Heartbeat CPU 0 instructions: 50000001 cycles: 109774951 heartbeat IPC: 0.355989 cumulative IPC: 0.384343 (Simulation time: 1 hr 52 min 55 sec) 
Heartbeat CPU 0 instructions: 51000003 cycles: 112581819 heartbeat IPC: 0.35627 cumulative IPC: 0.383606 (Simulation time: 1 hr 55 min 20 sec) 
Heartbeat CPU 0 instructions: 52000000 cycles: 115358455 heartbeat IPC: 0.360147 cumulative IPC: 0.383012 (Simulation time: 1 hr 57 min 43 sec) 
Heartbeat CPU 0 instructions: 53000003 cycles: 118151900 heartbeat IPC: 0.357982 cumulative IPC: 0.38239 (Simulation time: 2 hr 0 min 5 sec) 
Heartbeat CPU 0 instructions: 54000001 cycles: 120910882 heartbeat IPC: 0.362452 cumulative IPC: 0.381913 (Simulation time: 2 hr 2 min 24 sec) 
Heartbeat CPU 0 instructions: 55000001 cycles: 123823740 heartbeat IPC: 0.343305 cumulative IPC: 0.380961 (Simulation time: 2 hr 4 min 50 sec) 
Heartbeat CPU 0 instructions: 56000000 cycles: 126637015 heartbeat IPC: 0.355457 cumulative IPC: 0.380367 (Simulation time: 2 hr 7 min 9 sec) 
Heartbeat CPU 0 instructions: 57000003 cycles: 129407709 heartbeat IPC: 0.360922 cumulative IPC: 0.379932 (Simulation time: 2 hr 9 min 30 sec) 
Heartbeat CPU 0 instructions: 58000001 cycles: 132396037 heartbeat IPC: 0.334635 cumulative IPC: 0.378863 (Simulation time: 2 hr 11 min 51 sec) 
Heartbeat CPU 0 instructions: 59000001 cycles: 135681424 heartbeat IPC: 0.304378 cumulative IPC: 0.376981 (Simulation time: 2 hr 14 min 14 sec) 
Heartbeat CPU 0 instructions: 60000000 cycles: 138670769 heartbeat IPC: 0.334521 cumulative IPC: 0.376026 (Simulation time: 2 hr 16 min 38 sec) 
Heartbeat CPU 0 instructions: 61000001 cycles: 141727652 heartbeat IPC: 0.327131 cumulative IPC: 0.374927 (Simulation time: 2 hr 19 min 6 sec) 
Heartbeat CPU 0 instructions: 62000000 cycles: 145066424 heartbeat IPC: 0.299511 cumulative IPC: 0.373121 (Simulation time: 2 hr 21 min 31 sec) 
Heartbeat CPU 0 instructions: 63000001 cycles: 147891965 heartbeat IPC: 0.353915 cumulative IPC: 0.372739 (Simulation time: 2 hr 23 min 55 sec) 
Heartbeat CPU 0 instructions: 64000000 cycles: 150699407 heartbeat IPC: 0.356196 cumulative IPC: 0.372419 (Simulation time: 2 hr 26 min 25 sec) 
Heartbeat CPU 0 instructions: 65000001 cycles: 153496933 heartbeat IPC: 0.357459 cumulative IPC: 0.372135 (Simulation time: 2 hr 28 min 43 sec) 
Heartbeat CPU 0 instructions: 66000002 cycles: 157633124 heartbeat IPC: 0.241769 cumulative IPC: 0.368586 (Simulation time: 2 hr 31 min 25 sec) 
Heartbeat CPU 0 instructions: 67000001 cycles: 159294802 heartbeat IPC: 0.601801 cumulative IPC: 0.371109 (Simulation time: 2 hr 33 min 31 sec) 
Heartbeat CPU 0 instructions: 68000000 cycles: 160419305 heartbeat IPC: 0.889281 cumulative IPC: 0.374876 (Simulation time: 2 hr 35 min 31 sec) 
Heartbeat CPU 0 instructions: 69000003 cycles: 161561342 heartbeat IPC: 0.875631 cumulative IPC: 0.378545 (Simulation time: 2 hr 37 min 39 sec) 
Heartbeat CPU 0 instructions: 70000000 cycles: 162681744 heartbeat IPC: 0.892534 cumulative IPC: 0.382213 (Simulation time: 2 hr 39 min 40 sec) 
Heartbeat CPU 0 instructions: 71000001 cycles: 163856590 heartbeat IPC: 0.851176 cumulative IPC: 0.385697 (Simulation time: 2 hr 41 min 47 sec) 
Heartbeat CPU 0 instructions: 72000000 cycles: 167214701 heartbeat IPC: 0.297786 cumulative IPC: 0.383869 (Simulation time: 2 hr 44 min 14 sec) 
Heartbeat CPU 0 instructions: 73000000 cycles: 170610723 heartbeat IPC: 0.294462 cumulative IPC: 0.382028 (Simulation time: 2 hr 46 min 49 sec) 
Heartbeat CPU 0 instructions: 74000001 cycles: 173956833 heartbeat IPC: 0.298855 cumulative IPC: 0.380374 (Simulation time: 2 hr 49 min 17 sec) 
Heartbeat CPU 0 instructions: 75000001 cycles: 176876666 heartbeat IPC: 0.342485 cumulative IPC: 0.379728 (Simulation time: 2 hr 51 min 40 sec) 
Heartbeat CPU 0 instructions: 76000000 cycles: 179674778 heartbeat IPC: 0.357383 cumulative IPC: 0.379368 (Simulation time: 2 hr 54 min 0 sec) 
Heartbeat CPU 0 instructions: 77000000 cycles: 182485788 heartbeat IPC: 0.355744 cumulative IPC: 0.378992 (Simulation time: 2 hr 56 min 16 sec) 
Heartbeat CPU 0 instructions: 78000001 cycles: 185295933 heartbeat IPC: 0.355854 cumulative IPC: 0.37863 (Simulation time: 2 hr 58 min 26 sec) 
Heartbeat CPU 0 instructions: 79000001 cycles: 188098094 heartbeat IPC: 0.356867 cumulative IPC: 0.378296 (Simulation time: 3 hr 0 min 42 sec) 
Heartbeat CPU 0 instructions: 80000000 cycles: 190878620 heartbeat IPC: 0.359644 cumulative IPC: 0.378016 (Simulation time: 3 hr 2 min 59 sec) 
Heartbeat CPU 0 instructions: 81000002 cycles: 193741872 heartbeat IPC: 0.349254 cumulative IPC: 0.377578 (Simulation time: 3 hr 5 min 21 sec) 
Heartbeat CPU 0 instructions: 82000001 cycles: 196548707 heartbeat IPC: 0.356273 cumulative IPC: 0.377265 (Simulation time: 3 hr 7 min 44 sec) 
Heartbeat CPU 0 instructions: 83000002 cycles: 199393455 heartbeat IPC: 0.351525 cumulative IPC: 0.376887 (Simulation time: 3 hr 9 min 59 sec) 
Heartbeat CPU 0 instructions: 84000000 cycles: 202251592 heartbeat IPC: 0.349878 cumulative IPC: 0.376494 (Simulation time: 3 hr 12 min 12 sec) 
Heartbeat CPU 0 instructions: 85000002 cycles: 205593921 heartbeat IPC: 0.299193 cumulative IPC: 0.375201 (Simulation time: 3 hr 14 min 29 sec) 
Heartbeat CPU 0 instructions: 86000002 cycles: 208903338 heartbeat IPC: 0.302168 cumulative IPC: 0.374012 (Simulation time: 3 hr 16 min 52 sec) 
Heartbeat CPU 0 instructions: 87000000 cycles: 211938726 heartbeat IPC: 0.329447 cumulative IPC: 0.373356 (Simulation time: 3 hr 19 min 21 sec) 
Heartbeat CPU 0 instructions: 88000000 cycles: 214951233 heartbeat IPC: 0.331949 cumulative IPC: 0.37276 (Simulation time: 3 hr 21 min 33 sec) 
Heartbeat CPU 0 instructions: 89000002 cycles: 218031764 heartbeat IPC: 0.32462 cumulative IPC: 0.372062 (Simulation time: 3 hr 23 min 53 sec) 
Heartbeat CPU 0 instructions: 90000001 cycles: 220811705 heartbeat IPC: 0.35972 cumulative IPC: 0.371902 (Simulation time: 3 hr 26 min 6 sec) 
Heartbeat CPU 0 instructions: 91000001 cycles: 223618622 heartbeat IPC: 0.356263 cumulative IPC: 0.371701 (Simulation time: 3 hr 28 min 15 sec) 
Heartbeat CPU 0 instructions: 92000000 cycles: 226504949 heartbeat IPC: 0.346461 cumulative IPC: 0.371371 (Simulation time: 3 hr 30 min 40 sec) 
Heartbeat CPU 0 instructions: 93000000 cycles: 229322528 heartbeat IPC: 0.354915 cumulative IPC: 0.371163 (Simulation time: 3 hr 33 min 13 sec) 
Heartbeat CPU 0 instructions: 94000000 cycles: 233854507 heartbeat IPC: 0.220654 cumulative IPC: 0.368174 (Simulation time: 3 hr 36 min 10 sec) 
Heartbeat CPU 0 instructions: 95000000 cycles: 235039360 heartbeat IPC: 0.843987 cumulative IPC: 0.370632 (Simulation time: 3 hr 38 min 15 sec) 
Heartbeat CPU 0 instructions: 96000000 cycles: 236182362 heartbeat IPC: 0.874889 cumulative IPC: 0.373133 (Simulation time: 3 hr 40 min 12 sec) 
Heartbeat CPU 0 instructions: 97000002 cycles: 237301043 heartbeat IPC: 0.893912 cumulative IPC: 0.375648 (Simulation time: 3 hr 41 min 58 sec) 
Heartbeat CPU 0 instructions: 98000001 cycles: 238442983 heartbeat IPC: 0.875702 cumulative IPC: 0.378102 (Simulation time: 3 hr 44 min 2 sec) 
Heartbeat CPU 0 instructions: 99000002 cycles: 240318513 heartbeat IPC: 0.533183 cumulative IPC: 0.379341 (Simulation time: 3 hr 46 min 14 sec) 
Heartbeat CPU 0 instructions: 100000000 cycles: 243712913 heartbeat IPC: 0.294602 cumulative IPC: 0.378133 (Simulation time: 3 hr 48 min 34 sec) 
Heartbeat CPU 0 instructions: 101000002 cycles: 246828077 heartbeat IPC: 0.321011 cumulative IPC: 0.377395 (Simulation time: 3 hr 50 min 53 sec) 
Heartbeat CPU 0 instructions: 102000001 cycles: 249843876 heartbeat IPC: 0.331587 cumulative IPC: 0.376829 (Simulation time: 3 hr 53 min 14 sec) 
Heartbeat CPU 0 instructions: 103000000 cycles: 252646296 heartbeat IPC: 0.356834 cumulative IPC: 0.376602 (Simulation time: 3 hr 55 min 29 sec) 
Heartbeat CPU 0 instructions: 104000000 cycles: 255481402 heartbeat IPC: 0.35272 cumulative IPC: 0.376331 (Simulation time: 3 hr 57 min 44 sec) 
Heartbeat CPU 0 instructions: 105000001 cycles: 258309161 heartbeat IPC: 0.353637 cumulative IPC: 0.376077 (Simulation time: 3 hr 59 min 49 sec) 
Heartbeat CPU 0 instructions: 106000000 cycles: 261229638 heartbeat IPC: 0.342409 cumulative IPC: 0.375692 (Simulation time: 4 hr 2 min 2 sec) 
Heartbeat CPU 0 instructions: 107000002 cycles: 264069672 heartbeat IPC: 0.352109 cumulative IPC: 0.375433 (Simulation time: 4 hr 4 min 9 sec) 
Heartbeat CPU 0 instructions: 108000000 cycles: 266890044 heartbeat IPC: 0.354562 cumulative IPC: 0.375208 (Simulation time: 4 hr 6 min 26 sec) 
Heartbeat CPU 0 instructions: 109000002 cycles: 269687621 heartbeat IPC: 0.357453 cumulative IPC: 0.375019 (Simulation time: 4 hr 8 min 37 sec) 
Heartbeat CPU 0 instructions: 110000001 cycles: 272525113 heartbeat IPC: 0.352424 cumulative IPC: 0.374779 (Simulation time: 4 hr 10 min 42 sec) 
Finished CPU 0 instructions: 100000001 cycles: 266823820 cummulative IPC: 0.374779 (Simulation time: 4 hr 10 min 42 sec) 

ChampSim completed all CPUs

Region of Interest Statistics

CPU 0 cummulative IPC: 0.374779 instructions: 100000001 cycles: 266823820
LLC TOTAL     ACCESS:    4665970  HIT:    2568333  MISS:    2097637
LLC LOAD      ACCESS:    2170320  HIT:    1986656  MISS:     183664
LLC RFO       ACCESS:      24957  HIT:       9171  MISS:      15786
LLC PREFETCH  ACCESS:    2390324  HIT:     514091  MISS:    1876233
LLC WRITEBACK ACCESS:      80369  HIT:      58415  MISS:      21954
Insertion Distribution: 
	LOAD 37422 0 115845 91683 
	RFO 4144 0 6201 7232 
	PREF 0 3833 295125 1787155 
	WRITEBACK 0 0 0 23380 
Total Prefetch Downgrades: 6549
