
*** ChampSim Multicore Out-of-Order Simulator ***

Warmup Instructions: 10000000
Simulation Instructions: 100000000
Configuration: 2
Number of CPUs: 1
LLC sets: 2048
LLC ways: 16
Off-chip DRAM Channels: 1 Width: 64-bit Data Rate: 1600 MT/s

CPU 0 runs /datasets/cs240c-wi22-a00-public/data/Assignment2-gz/leslie3d_1116B.trace.gz
CPU 0 L1D next line prefetcher
CPU 0 L2C IP-based stride prefetcher
Initialize SRRIP state
Heartbeat CPU 0 instructions: 1000003 cycles: 535311 heartbeat IPC: 1.86808 cumulative IPC: 1.86808 (Simulation time: 0 hr 2 min 51 sec) 
Heartbeat CPU 0 instructions: 2000003 cycles: 1071193 heartbeat IPC: 1.86608 cumulative IPC: 1.86708 (Simulation time: 0 hr 5 min 51 sec) 
Heartbeat CPU 0 instructions: 3000003 cycles: 1607887 heartbeat IPC: 1.86326 cumulative IPC: 1.8658 (Simulation time: 0 hr 9 min 6 sec) 
Heartbeat CPU 0 instructions: 4000000 cycles: 2143307 heartbeat IPC: 1.86769 cumulative IPC: 1.86627 (Simulation time: 0 hr 11 min 56 sec) 
Heartbeat CPU 0 instructions: 5000001 cycles: 2678455 heartbeat IPC: 1.86864 cumulative IPC: 1.86675 (Simulation time: 0 hr 14 min 43 sec) 
Heartbeat CPU 0 instructions: 6000001 cycles: 3213920 heartbeat IPC: 1.86754 cumulative IPC: 1.86688 (Simulation time: 0 hr 17 min 23 sec) 
Heartbeat CPU 0 instructions: 7000001 cycles: 3749914 heartbeat IPC: 1.86569 cumulative IPC: 1.86671 (Simulation time: 0 hr 20 min 20 sec) 
Heartbeat CPU 0 instructions: 8000000 cycles: 4285931 heartbeat IPC: 1.86561 cumulative IPC: 1.86657 (Simulation time: 0 hr 23 min 23 sec) 
Heartbeat CPU 0 instructions: 9000003 cycles: 4821114 heartbeat IPC: 1.86853 cumulative IPC: 1.86679 (Simulation time: 0 hr 26 min 3 sec) 
Heartbeat CPU 0 instructions: 10000002 cycles: 5356115 heartbeat IPC: 1.86915 cumulative IPC: 1.86703 (Simulation time: 0 hr 28 min 43 sec) 

Warmup complete CPU 0 instructions: 10000002 cycles: 5356115 (Simulation time: 0 hr 28 min 43 sec) 

Heartbeat CPU 0 instructions: 11000001 cycles: 6447140 heartbeat IPC: 0.916568 cumulative IPC: 0.916568 (Simulation time: 0 hr 31 min 28 sec) 
Heartbeat CPU 0 instructions: 12000000 cycles: 7508337 heartbeat IPC: 0.942331 cumulative IPC: 0.929271 (Simulation time: 0 hr 34 min 26 sec) 
Heartbeat CPU 0 instructions: 13000002 cycles: 8556876 heartbeat IPC: 0.95371 cumulative IPC: 0.937277 (Simulation time: 0 hr 37 min 21 sec) 
Heartbeat CPU 0 instructions: 14000003 cycles: 9613964 heartbeat IPC: 0.945996 cumulative IPC: 0.939442 (Simulation time: 0 hr 40 min 14 sec) 
Heartbeat CPU 0 instructions: 15000000 cycles: 10695774 heartbeat IPC: 0.924374 cumulative IPC: 0.936389 (Simulation time: 0 hr 43 min 13 sec) 
Heartbeat CPU 0 instructions: 16000000 cycles: 11763997 heartbeat IPC: 0.936134 cumulative IPC: 0.936347 (Simulation time: 0 hr 46 min 8 sec) 
Heartbeat CPU 0 instructions: 17000003 cycles: 12814748 heartbeat IPC: 0.951703 cumulative IPC: 0.93851 (Simulation time: 0 hr 48 min 51 sec) 
Heartbeat CPU 0 instructions: 18000001 cycles: 13874417 heartbeat IPC: 0.943689 cumulative IPC: 0.939154 (Simulation time: 0 hr 51 min 40 sec) 
Heartbeat CPU 0 instructions: 19000001 cycles: 14926370 heartbeat IPC: 0.950613 cumulative IPC: 0.940414 (Simulation time: 0 hr 54 min 20 sec) 
Heartbeat CPU 0 instructions: 20000000 cycles: 15970591 heartbeat IPC: 0.957651 cumulative IPC: 0.942109 (Simulation time: 0 hr 57 min 9 sec) 
Heartbeat CPU 0 instructions: 21000000 cycles: 17026880 heartbeat IPC: 0.946711 cumulative IPC: 0.942526 (Simulation time: 0 hr 59 min 57 sec) 
Heartbeat CPU 0 instructions: 22000000 cycles: 18057821 heartbeat IPC: 0.969988 cumulative IPC: 0.944755 (Simulation time: 1 hr 2 min 39 sec) 
Heartbeat CPU 0 instructions: 23000003 cycles: 19109765 heartbeat IPC: 0.950624 cumulative IPC: 0.945204 (Simulation time: 1 hr 5 min 22 sec) 
Heartbeat CPU 0 instructions: 24000000 cycles: 20153192 heartbeat IPC: 0.958378 cumulative IPC: 0.946133 (Simulation time: 1 hr 8 min 15 sec) 
Heartbeat CPU 0 instructions: 25000002 cycles: 21176774 heartbeat IPC: 0.976963 cumulative IPC: 0.948127 (Simulation time: 1 hr 11 min 10 sec) 
Heartbeat CPU 0 instructions: 26000002 cycles: 22216063 heartbeat IPC: 0.962196 cumulative IPC: 0.948995 (Simulation time: 1 hr 14 min 11 sec) 
Heartbeat CPU 0 instructions: 27000001 cycles: 23262395 heartbeat IPC: 0.955719 cumulative IPC: 0.949388 (Simulation time: 1 hr 17 min 5 sec) 
Heartbeat CPU 0 instructions: 28000000 cycles: 24298890 heartbeat IPC: 0.964789 cumulative IPC: 0.95023 (Simulation time: 1 hr 20 min 1 sec) 
Heartbeat CPU 0 instructions: 29000003 cycles: 25350054 heartbeat IPC: 0.951329 cumulative IPC: 0.950288 (Simulation time: 1 hr 22 min 54 sec) 
Heartbeat CPU 0 instructions: 30000002 cycles: 26404703 heartbeat IPC: 0.948182 cumulative IPC: 0.950182 (Simulation time: 1 hr 25 min 55 sec) 
Heartbeat CPU 0 instructions: 31000001 cycles: 27457913 heartbeat IPC: 0.949477 cumulative IPC: 0.950149 (Simulation time: 1 hr 28 min 31 sec) 
Heartbeat CPU 0 instructions: 32000000 cycles: 28501573 heartbeat IPC: 0.958165 cumulative IPC: 0.95051 (Simulation time: 1 hr 31 min 29 sec) 
Heartbeat CPU 0 instructions: 33000002 cycles: 29546547 heartbeat IPC: 0.956964 cumulative IPC: 0.950789 (Simulation time: 1 hr 34 min 19 sec) 
Heartbeat CPU 0 instructions: 34000002 cycles: 30596138 heartbeat IPC: 0.952752 cumulative IPC: 0.950871 (Simulation time: 1 hr 36 min 57 sec) 
Heartbeat CPU 0 instructions: 35000000 cycles: 31653031 heartbeat IPC: 0.946168 cumulative IPC: 0.950682 (Simulation time: 1 hr 39 min 39 sec) 
Heartbeat CPU 0 instructions: 36000000 cycles: 32706953 heartbeat IPC: 0.948837 cumulative IPC: 0.950611 (Simulation time: 1 hr 42 min 36 sec) 
Heartbeat CPU 0 instructions: 37000003 cycles: 33984697 heartbeat IPC: 0.782632 cumulative IPC: 0.943113 (Simulation time: 1 hr 45 min 35 sec) 
Heartbeat CPU 0 instructions: 38000003 cycles: 35516106 heartbeat IPC: 0.652993 cumulative IPC: 0.928382 (Simulation time: 1 hr 48 min 33 sec) 
Heartbeat CPU 0 instructions: 39000003 cycles: 37081360 heartbeat IPC: 0.638874 cumulative IPC: 0.914099 (Simulation time: 1 hr 51 min 37 sec) 
Heartbeat CPU 0 instructions: 40000000 cycles: 38646908 heartbeat IPC: 0.638752 cumulative IPC: 0.90115 (Simulation time: 1 hr 55 min 7 sec) 
Heartbeat CPU 0 instructions: 41000002 cycles: 40191882 heartbeat IPC: 0.647261 cumulative IPC: 0.88989 (Simulation time: 1 hr 58 min 18 sec) 
Heartbeat CPU 0 instructions: 42000001 cycles: 41739951 heartbeat IPC: 0.645965 cumulative IPC: 0.879511 (Simulation time: 2 hr 1 min 17 sec) 
Heartbeat CPU 0 instructions: 43000003 cycles: 43272794 heartbeat IPC: 0.652384 cumulative IPC: 0.870329 (Simulation time: 2 hr 4 min 3 sec) 
Heartbeat CPU 0 instructions: 44000000 cycles: 44815170 heartbeat IPC: 0.648348 cumulative IPC: 0.861653 (Simulation time: 2 hr 6 min 34 sec) 
Heartbeat CPU 0 instructions: 45000002 cycles: 46355089 heartbeat IPC: 0.649386 cumulative IPC: 0.85368 (Simulation time: 2 hr 9 min 47 sec) 
Heartbeat CPU 0 instructions: 46000002 cycles: 47904837 heartbeat IPC: 0.645266 cumulative IPC: 0.846089 (Simulation time: 2 hr 12 min 32 sec) 
Heartbeat CPU 0 instructions: 47000001 cycles: 49446540 heartbeat IPC: 0.648633 cumulative IPC: 0.839184 (Simulation time: 2 hr 15 min 18 sec) 
Heartbeat CPU 0 instructions: 48000000 cycles: 50977430 heartbeat IPC: 0.653214 cumulative IPC: 0.832944 (Simulation time: 2 hr 18 min 3 sec) 
Heartbeat CPU 0 instructions: 49000000 cycles: 53175386 heartbeat IPC: 0.454968 cumulative IPC: 0.815571 (Simulation time: 2 hr 21 min 5 sec) 
Heartbeat CPU 0 instructions: 50000000 cycles: 55586012 heartbeat IPC: 0.41483 cumulative IPC: 0.796338 (Simulation time: 2 hr 24 min 10 sec) 
Heartbeat CPU 0 instructions: 51000003 cycles: 57939675 heartbeat IPC: 0.424871 cumulative IPC: 0.779711 (Simulation time: 2 hr 27 min 15 sec) 
Heartbeat CPU 0 instructions: 52000000 cycles: 60347759 heartbeat IPC: 0.415267 cumulative IPC: 0.763752 (Simulation time: 2 hr 30 min 26 sec) 
Heartbeat CPU 0 instructions: 53000003 cycles: 62768549 heartbeat IPC: 0.41309 cumulative IPC: 0.748967 (Simulation time: 2 hr 33 min 41 sec) 
Heartbeat CPU 0 instructions: 54000000 cycles: 65139507 heartbeat IPC: 0.421769 cumulative IPC: 0.73599 (Simulation time: 2 hr 36 min 57 sec) 
Heartbeat CPU 0 instructions: 55000002 cycles: 67469574 heartbeat IPC: 0.429173 cumulative IPC: 0.724481 (Simulation time: 2 hr 40 min 37 sec) 
Heartbeat CPU 0 instructions: 56000000 cycles: 69834628 heartbeat IPC: 0.422822 cumulative IPC: 0.713416 (Simulation time: 2 hr 44 min 4 sec) 
Heartbeat CPU 0 instructions: 57000001 cycles: 72167798 heartbeat IPC: 0.428602 cumulative IPC: 0.70347 (Simulation time: 2 hr 47 min 35 sec) 
Heartbeat CPU 0 instructions: 58000001 cycles: 74419115 heartbeat IPC: 0.444184 cumulative IPC: 0.695018 (Simulation time: 2 hr 50 min 56 sec) 
Heartbeat CPU 0 instructions: 59000000 cycles: 75718696 heartbeat IPC: 0.769478 cumulative IPC: 0.696393 (Simulation time: 2 hr 53 min 45 sec) 
Heartbeat CPU 0 instructions: 60000000 cycles: 77015078 heartbeat IPC: 0.771378 cumulative IPC: 0.697749 (Simulation time: 2 hr 56 min 54 sec) 
Heartbeat CPU 0 instructions: 61000003 cycles: 78400448 heartbeat IPC: 0.721831 cumulative IPC: 0.698206 (Simulation time: 2 hr 59 min 52 sec) 
Heartbeat CPU 0 instructions: 62000002 cycles: 79726279 heartbeat IPC: 0.754243 cumulative IPC: 0.699205 (Simulation time: 3 hr 3 min 1 sec) 
Heartbeat CPU 0 instructions: 63000003 cycles: 80927548 heartbeat IPC: 0.832454 cumulative IPC: 0.701323 (Simulation time: 3 hr 6 min 7 sec) 
Heartbeat CPU 0 instructions: 64000000 cycles: 82157031 heartbeat IPC: 0.813348 cumulative IPC: 0.703117 (Simulation time: 3 hr 9 min 15 sec) 
Heartbeat CPU 0 instructions: 65000001 cycles: 83702283 heartbeat IPC: 0.647144 cumulative IPC: 0.702013 (Simulation time: 3 hr 12 min 26 sec) 
Heartbeat CPU 0 instructions: 66000000 cycles: 84919477 heartbeat IPC: 0.821561 cumulative IPC: 0.703842 (Simulation time: 3 hr 15 min 32 sec) 
Heartbeat CPU 0 instructions: 67000001 cycles: 86135527 heartbeat IPC: 0.822335 cumulative IPC: 0.705625 (Simulation time: 3 hr 18 min 38 sec) 
Heartbeat CPU 0 instructions: 68000000 cycles: 87558797 heartbeat IPC: 0.702607 cumulative IPC: 0.705573 (Simulation time: 3 hr 21 min 39 sec) 
Heartbeat CPU 0 instructions: 69000002 cycles: 88838308 heartbeat IPC: 0.78155 cumulative IPC: 0.706738 (Simulation time: 3 hr 24 min 47 sec) 
Heartbeat CPU 0 instructions: 70000000 cycles: 90031793 heartbeat IPC: 0.837881 cumulative IPC: 0.708586 (Simulation time: 3 hr 27 min 51 sec) 
Heartbeat CPU 0 instructions: 71000002 cycles: 91239913 heartbeat IPC: 0.827734 cumulative IPC: 0.710262 (Simulation time: 3 hr 30 min 55 sec) 
Heartbeat CPU 0 instructions: 72000000 cycles: 92664084 heartbeat IPC: 0.702161 cumulative IPC: 0.71013 (Simulation time: 3 hr 34 min 3 sec) 
Heartbeat CPU 0 instructions: 73000000 cycles: 93855095 heartbeat IPC: 0.839623 cumulative IPC: 0.711873 (Simulation time: 3 hr 37 min 7 sec) 
Heartbeat CPU 0 instructions: 74000000 cycles: 95039870 heartbeat IPC: 0.844042 cumulative IPC: 0.713619 (Simulation time: 3 hr 40 min 8 sec) 
Heartbeat CPU 0 instructions: 75000002 cycles: 96462805 heartbeat IPC: 0.702774 cumulative IPC: 0.713449 (Simulation time: 3 hr 42 min 57 sec) 
Heartbeat CPU 0 instructions: 76000000 cycles: 97655457 heartbeat IPC: 0.838466 cumulative IPC: 0.715065 (Simulation time: 3 hr 46 min 9 sec) 
Heartbeat CPU 0 instructions: 77000001 cycles: 98832809 heartbeat IPC: 0.849365 cumulative IPC: 0.716756 (Simulation time: 3 hr 49 min 3 sec) 
Heartbeat CPU 0 instructions: 78000000 cycles: 100111831 heartbeat IPC: 0.781847 cumulative IPC: 0.717635 (Simulation time: 3 hr 51 min 58 sec) 
Heartbeat CPU 0 instructions: 79000001 cycles: 101417791 heartbeat IPC: 0.765721 cumulative IPC: 0.718289 (Simulation time: 3 hr 54 min 47 sec) 
Heartbeat CPU 0 instructions: 80000000 cycles: 102592592 heartbeat IPC: 0.851207 cumulative IPC: 0.719894 (Simulation time: 3 hr 57 min 44 sec) 
Heartbeat CPU 0 instructions: 81000003 cycles: 103769069 heartbeat IPC: 0.849998 cumulative IPC: 0.72145 (Simulation time: 4 hr 0 min 37 sec) 
Heartbeat CPU 0 instructions: 82000000 cycles: 105172061 heartbeat IPC: 0.71276 cumulative IPC: 0.721328 (Simulation time: 4 hr 3 min 13 sec) 
Heartbeat CPU 0 instructions: 83000001 cycles: 106356741 heartbeat IPC: 0.844111 cumulative IPC: 0.722768 (Simulation time: 4 hr 6 min 7 sec) 
Heartbeat CPU 0 instructions: 84000000 cycles: 107546488 heartbeat IPC: 0.840514 cumulative IPC: 0.724139 (Simulation time: 4 hr 9 min 9 sec) 
Heartbeat CPU 0 instructions: 85000003 cycles: 108926245 heartbeat IPC: 0.724768 cumulative IPC: 0.724147 (Simulation time: 4 hr 11 min 46 sec) 
Heartbeat CPU 0 instructions: 86000002 cycles: 110137090 heartbeat IPC: 0.825869 cumulative IPC: 0.725322 (Simulation time: 4 hr 14 min 22 sec) 
Heartbeat CPU 0 instructions: 87000001 cycles: 111314680 heartbeat IPC: 0.849191 cumulative IPC: 0.726699 (Simulation time: 4 hr 16 min 57 sec) 
Heartbeat CPU 0 instructions: 88000000 cycles: 112526502 heartbeat IPC: 0.825203 cumulative IPC: 0.727813 (Simulation time: 4 hr 19 min 32 sec) 
Heartbeat CPU 0 instructions: 89000001 cycles: 113917190 heartbeat IPC: 0.719069 cumulative IPC: 0.727701 (Simulation time: 4 hr 21 min 57 sec) 
Heartbeat CPU 0 instructions: 90000003 cycles: 115097297 heartbeat IPC: 0.847382 cumulative IPC: 0.728988 (Simulation time: 4 hr 24 min 14 sec) 
Heartbeat CPU 0 instructions: 91000000 cycles: 116299746 heartbeat IPC: 0.831634 cumulative IPC: 0.7301 (Simulation time: 4 hr 26 min 28 sec) 
Heartbeat CPU 0 instructions: 92000000 cycles: 117710575 heartbeat IPC: 0.708803 cumulative IPC: 0.729833 (Simulation time: 4 hr 28 min 24 sec) 
Heartbeat CPU 0 instructions: 93000002 cycles: 118903775 heartbeat IPC: 0.838084 cumulative IPC: 0.730971 (Simulation time: 4 hr 30 min 15 sec) 
Heartbeat CPU 0 instructions: 94000000 cycles: 120095211 heartbeat IPC: 0.839322 cumulative IPC: 0.732096 (Simulation time: 4 hr 32 min 3 sec) 
Heartbeat CPU 0 instructions: 95000003 cycles: 121398456 heartbeat IPC: 0.767318 cumulative IPC: 0.732491 (Simulation time: 4 hr 33 min 49 sec) 
Heartbeat CPU 0 instructions: 96000000 cycles: 122698436 heartbeat IPC: 0.76924 cumulative IPC: 0.732898 (Simulation time: 4 hr 35 min 29 sec) 
Heartbeat CPU 0 instructions: 97000000 cycles: 123864179 heartbeat IPC: 0.857822 cumulative IPC: 0.734127 (Simulation time: 4 hr 37 min 7 sec) 
Heartbeat CPU 0 instructions: 98000000 cycles: 125060355 heartbeat IPC: 0.835997 cumulative IPC: 0.735145 (Simulation time: 4 hr 38 min 47 sec) 
Heartbeat CPU 0 instructions: 99000003 cycles: 126461725 heartbeat IPC: 0.71359 cumulative IPC: 0.734896 (Simulation time: 4 hr 40 min 15 sec) 
Heartbeat CPU 0 instructions: 100000000 cycles: 127656463 heartbeat IPC: 0.837001 cumulative IPC: 0.735893 (Simulation time: 4 hr 41 min 44 sec) 
Heartbeat CPU 0 instructions: 101000001 cycles: 128834583 heartbeat IPC: 0.848811 cumulative IPC: 0.736971 (Simulation time: 4 hr 43 min 11 sec) 
Heartbeat CPU 0 instructions: 102000003 cycles: 130242613 heartbeat IPC: 0.710214 cumulative IPC: 0.736669 (Simulation time: 4 hr 44 min 27 sec) 
Heartbeat CPU 0 instructions: 103000002 cycles: 131435056 heartbeat IPC: 0.838614 cumulative IPC: 0.737633 (Simulation time: 4 hr 45 min 40 sec) 
Heartbeat CPU 0 instructions: 104000000 cycles: 132636180 heartbeat IPC: 0.832552 cumulative IPC: 0.738529 (Simulation time: 4 hr 46 min 48 sec) 
Heartbeat CPU 0 instructions: 105000000 cycles: 133850099 heartbeat IPC: 0.823778 cumulative IPC: 0.739334 (Simulation time: 4 hr 47 min 48 sec) 
Heartbeat CPU 0 instructions: 106000003 cycles: 135597277 heartbeat IPC: 0.572353 cumulative IPC: 0.737094 (Simulation time: 4 hr 48 min 51 sec) 
Heartbeat CPU 0 instructions: 107000002 cycles: 137248803 heartbeat IPC: 0.6055 cumulative IPC: 0.735446 (Simulation time: 4 hr 49 min 49 sec) 
Heartbeat CPU 0 instructions: 108000000 cycles: 139129187 heartbeat IPC: 0.531805 cumulative IPC: 0.732584 (Simulation time: 4 hr 50 min 46 sec) 
Heartbeat CPU 0 instructions: 109000003 cycles: 140963330 heartbeat IPC: 0.545215 cumulative IPC: 0.73005 (Simulation time: 4 hr 51 min 39 sec) 
Heartbeat CPU 0 instructions: 110000003 cycles: 142821381 heartbeat IPC: 0.538198 cumulative IPC: 0.727457 (Simulation time: 4 hr 52 min 29 sec) 
Finished CPU 0 instructions: 100000001 cycles: 137465266 cummulative IPC: 0.727457 (Simulation time: 4 hr 52 min 29 sec) 

ChampSim completed all CPUs

Region of Interest Statistics

CPU 0 cummulative IPC: 0.727457 instructions: 100000001 cycles: 137465266
LLC TOTAL     ACCESS:    3583350  HIT:     814414  MISS:    2768936
LLC LOAD      ACCESS:     297655  HIT:      62147  MISS:     235508
LLC RFO       ACCESS:     622476  HIT:     116230  MISS:     506246
LLC PREFETCH  ACCESS:    1899831  HIT:     341342  MISS:    1558489
LLC WRITEBACK ACCESS:     763388  HIT:     294695  MISS:     468693
Insertion Distribution: 
	LOAD 19459 0 62968 155764 
	RFO 42 0 109702 422895 
	PREF 0 26630 369918 1276552 
	WRITEBACK 0 0 0 485273 
Total Prefetch Downgrades: 32682
