
*** ChampSim Multicore Out-of-Order Simulator ***

Warmup Instructions: 10000000
Simulation Instructions: 100000000
Configuration: 2
Number of CPUs: 1
LLC sets: 2048
LLC ways: 16
Off-chip DRAM Channels: 1 Width: 64-bit Data Rate: 1600 MT/s

CPU 0 runs /datasets/cs240c-wi22-a00-public/data/Assignment2-gz/astar_313B.trace.gz
CPU 0 L1D next line prefetcher
CPU 0 L2C IP-based stride prefetcher
Initialize SRRIP state
Heartbeat CPU 0 instructions: 1000001 cycles: 675690 heartbeat IPC: 1.47997 cumulative IPC: 1.47997 (Simulation time: 0 hr 3 min 43 sec) 
Heartbeat CPU 0 instructions: 2000003 cycles: 1263028 heartbeat IPC: 1.7026 cumulative IPC: 1.5835 (Simulation time: 0 hr 7 min 18 sec) 
Heartbeat CPU 0 instructions: 3000003 cycles: 1937033 heartbeat IPC: 1.48367 cumulative IPC: 1.54876 (Simulation time: 0 hr 11 min 1 sec) 
Heartbeat CPU 0 instructions: 4000000 cycles: 2610588 heartbeat IPC: 1.48466 cumulative IPC: 1.53222 (Simulation time: 0 hr 14 min 32 sec) 
Heartbeat CPU 0 instructions: 5000002 cycles: 3284222 heartbeat IPC: 1.48449 cumulative IPC: 1.52243 (Simulation time: 0 hr 18 min 7 sec) 
Heartbeat CPU 0 instructions: 6000001 cycles: 3870967 heartbeat IPC: 1.70432 cumulative IPC: 1.55 (Simulation time: 0 hr 21 min 38 sec) 
Heartbeat CPU 0 instructions: 7000001 cycles: 4439209 heartbeat IPC: 1.75981 cumulative IPC: 1.57686 (Simulation time: 0 hr 25 min 13 sec) 
Heartbeat CPU 0 instructions: 8000000 cycles: 4990686 heartbeat IPC: 1.81331 cumulative IPC: 1.60299 (Simulation time: 0 hr 28 min 34 sec) 
Heartbeat CPU 0 instructions: 9000001 cycles: 5552087 heartbeat IPC: 1.78126 cumulative IPC: 1.62101 (Simulation time: 0 hr 31 min 47 sec) 
Heartbeat CPU 0 instructions: 10000002 cycles: 6227180 heartbeat IPC: 1.48128 cumulative IPC: 1.60586 (Simulation time: 0 hr 35 min 12 sec) 

Warmup complete CPU 0 instructions: 10000002 cycles: 6227180 (Simulation time: 0 hr 35 min 12 sec) 

Heartbeat CPU 0 instructions: 11000000 cycles: 13285558 heartbeat IPC: 0.141675 cumulative IPC: 0.141675 (Simulation time: 0 hr 38 min 57 sec) 
Heartbeat CPU 0 instructions: 12000000 cycles: 20831047 heartbeat IPC: 0.13253 cumulative IPC: 0.13695 (Simulation time: 0 hr 42 min 50 sec) 
Heartbeat CPU 0 instructions: 13000003 cycles: 29537121 heartbeat IPC: 0.114863 cumulative IPC: 0.1287 (Simulation time: 0 hr 47 min 1 sec) 
Heartbeat CPU 0 instructions: 14000002 cycles: 36076575 heartbeat IPC: 0.152918 cumulative IPC: 0.134006 (Simulation time: 0 hr 50 min 41 sec) 
Heartbeat CPU 0 instructions: 15000000 cycles: 43032307 heartbeat IPC: 0.143766 cumulative IPC: 0.135851 (Simulation time: 0 hr 54 min 28 sec) 
Heartbeat CPU 0 instructions: 16000000 cycles: 49816748 heartbeat IPC: 0.147396 cumulative IPC: 0.137648 (Simulation time: 0 hr 58 min 17 sec) 
Heartbeat CPU 0 instructions: 17000001 cycles: 56365903 heartbeat IPC: 0.152692 cumulative IPC: 0.139613 (Simulation time: 1 hr 2 min 1 sec) 
Heartbeat CPU 0 instructions: 18000000 cycles: 65610535 heartbeat IPC: 0.108171 cumulative IPC: 0.134718 (Simulation time: 1 hr 6 min 13 sec) 
Heartbeat CPU 0 instructions: 19000000 cycles: 72115580 heartbeat IPC: 0.153727 cumulative IPC: 0.136595 (Simulation time: 1 hr 9 min 52 sec) 
Heartbeat CPU 0 instructions: 20000000 cycles: 79176402 heartbeat IPC: 0.141627 cumulative IPC: 0.137082 (Simulation time: 1 hr 13 min 40 sec) 
Heartbeat CPU 0 instructions: 21000002 cycles: 88337471 heartbeat IPC: 0.109158 cumulative IPC: 0.133966 (Simulation time: 1 hr 17 min 46 sec) 
Heartbeat CPU 0 instructions: 22000002 cycles: 95372723 heartbeat IPC: 0.142141 cumulative IPC: 0.134611 (Simulation time: 1 hr 21 min 49 sec) 
Heartbeat CPU 0 instructions: 23000002 cycles: 101410364 heartbeat IPC: 0.165628 cumulative IPC: 0.136579 (Simulation time: 1 hr 25 min 34 sec) 
Heartbeat CPU 0 instructions: 24000000 cycles: 108209314 heartbeat IPC: 0.147081 cumulative IPC: 0.137279 (Simulation time: 1 hr 29 min 1 sec) 
Heartbeat CPU 0 instructions: 25000001 cycles: 116637666 heartbeat IPC: 0.118647 cumulative IPC: 0.135857 (Simulation time: 1 hr 33 min 13 sec) 
Heartbeat CPU 0 instructions: 26000002 cycles: 123552593 heartbeat IPC: 0.144615 cumulative IPC: 0.136373 (Simulation time: 1 hr 37 min 0 sec) 
Heartbeat CPU 0 instructions: 27000003 cycles: 133042036 heartbeat IPC: 0.10538 cumulative IPC: 0.134054 (Simulation time: 1 hr 41 min 13 sec) 
Heartbeat CPU 0 instructions: 28000000 cycles: 138924611 heartbeat IPC: 0.169993 cumulative IPC: 0.135647 (Simulation time: 1 hr 44 min 38 sec) 
Heartbeat CPU 0 instructions: 29000001 cycles: 147659702 heartbeat IPC: 0.114481 cumulative IPC: 0.13434 (Simulation time: 1 hr 48 min 47 sec) 
Heartbeat CPU 0 instructions: 30000001 cycles: 153677350 heartbeat IPC: 0.166178 cumulative IPC: 0.135639 (Simulation time: 1 hr 52 min 13 sec) 
Heartbeat CPU 0 instructions: 31000002 cycles: 160043936 heartbeat IPC: 0.15707 cumulative IPC: 0.136526 (Simulation time: 1 hr 56 min 1 sec) 
Heartbeat CPU 0 instructions: 32000000 cycles: 166333143 heartbeat IPC: 0.159002 cumulative IPC: 0.137409 (Simulation time: 1 hr 59 min 40 sec) 
Heartbeat CPU 0 instructions: 33000000 cycles: 172436599 heartbeat IPC: 0.163842 cumulative IPC: 0.13838 (Simulation time: 2 hr 3 min 22 sec) 
Heartbeat CPU 0 instructions: 34000000 cycles: 181413411 heartbeat IPC: 0.111398 cumulative IPC: 0.136997 (Simulation time: 2 hr 7 min 40 sec) 
Heartbeat CPU 0 instructions: 35000000 cycles: 187614724 heartbeat IPC: 0.161256 cumulative IPC: 0.137826 (Simulation time: 2 hr 11 min 18 sec) 
Heartbeat CPU 0 instructions: 36000000 cycles: 194239984 heartbeat IPC: 0.150937 cumulative IPC: 0.138288 (Simulation time: 2 hr 15 min 12 sec) 
Heartbeat CPU 0 instructions: 37000002 cycles: 203214570 heartbeat IPC: 0.111426 cumulative IPC: 0.137065 (Simulation time: 2 hr 19 min 33 sec) 
Heartbeat CPU 0 instructions: 38000000 cycles: 209074924 heartbeat IPC: 0.170638 cumulative IPC: 0.138035 (Simulation time: 2 hr 23 min 6 sec) 
Heartbeat CPU 0 instructions: 39000001 cycles: 217905333 heartbeat IPC: 0.113245 cumulative IPC: 0.137 (Simulation time: 2 hr 27 min 16 sec) 
Heartbeat CPU 0 instructions: 40000000 cycles: 226796991 heartbeat IPC: 0.112465 cumulative IPC: 0.136011 (Simulation time: 2 hr 31 min 32 sec) 
Heartbeat CPU 0 instructions: 41000001 cycles: 233046784 heartbeat IPC: 0.160005 cumulative IPC: 0.136672 (Simulation time: 2 hr 34 min 59 sec) 
Heartbeat CPU 0 instructions: 42000003 cycles: 240314641 heartbeat IPC: 0.137592 cumulative IPC: 0.136701 (Simulation time: 2 hr 38 min 35 sec) 
Heartbeat CPU 0 instructions: 43000002 cycles: 250001023 heartbeat IPC: 0.103238 cumulative IPC: 0.135371 (Simulation time: 2 hr 42 min 56 sec) 
Heartbeat CPU 0 instructions: 44000000 cycles: 256081010 heartbeat IPC: 0.164474 cumulative IPC: 0.13608 (Simulation time: 2 hr 46 min 27 sec) 
Heartbeat CPU 0 instructions: 45000000 cycles: 262518633 heartbeat IPC: 0.155337 cumulative IPC: 0.136563 (Simulation time: 2 hr 50 min 9 sec) 
Heartbeat CPU 0 instructions: 46000002 cycles: 268970228 heartbeat IPC: 0.155001 cumulative IPC: 0.137016 (Simulation time: 2 hr 53 min 25 sec) 
Heartbeat CPU 0 instructions: 47000000 cycles: 275366007 heartbeat IPC: 0.156353 cumulative IPC: 0.137476 (Simulation time: 2 hr 56 min 30 sec) 
Heartbeat CPU 0 instructions: 48000000 cycles: 283880858 heartbeat IPC: 0.117442 cumulative IPC: 0.136861 (Simulation time: 3 hr 0 min 26 sec) 
Heartbeat CPU 0 instructions: 49000000 cycles: 289834201 heartbeat IPC: 0.167973 cumulative IPC: 0.137514 (Simulation time: 3 hr 3 min 39 sec) 
Heartbeat CPU 0 instructions: 50000000 cycles: 296133816 heartbeat IPC: 0.15874 cumulative IPC: 0.137975 (Simulation time: 3 hr 7 min 0 sec) 
Heartbeat CPU 0 instructions: 51000000 cycles: 302969229 heartbeat IPC: 0.146297 cumulative IPC: 0.138167 (Simulation time: 3 hr 10 min 25 sec) 
Heartbeat CPU 0 instructions: 52000000 cycles: 311477986 heartbeat IPC: 0.117526 cumulative IPC: 0.137592 (Simulation time: 3 hr 14 min 17 sec) 
Heartbeat CPU 0 instructions: 53000000 cycles: 318425925 heartbeat IPC: 0.143928 cumulative IPC: 0.137733 (Simulation time: 3 hr 17 min 40 sec) 
Heartbeat CPU 0 instructions: 54000000 cycles: 326232696 heartbeat IPC: 0.128094 cumulative IPC: 0.137498 (Simulation time: 3 hr 21 min 11 sec) 
Heartbeat CPU 0 instructions: 55000001 cycles: 334342255 heartbeat IPC: 0.123311 cumulative IPC: 0.137147 (Simulation time: 3 hr 24 min 52 sec) 
Heartbeat CPU 0 instructions: 56000000 cycles: 344157297 heartbeat IPC: 0.101884 cumulative IPC: 0.136123 (Simulation time: 3 hr 29 min 6 sec) 
Heartbeat CPU 0 instructions: 57000000 cycles: 350405413 heartbeat IPC: 0.160048 cumulative IPC: 0.136557 (Simulation time: 3 hr 32 min 32 sec) 
Heartbeat CPU 0 instructions: 58000001 cycles: 356934329 heartbeat IPC: 0.153165 cumulative IPC: 0.136866 (Simulation time: 3 hr 36 min 12 sec) 
Heartbeat CPU 0 instructions: 59000001 cycles: 365297812 heartbeat IPC: 0.119567 cumulative IPC: 0.136463 (Simulation time: 3 hr 39 min 45 sec) 
Heartbeat CPU 0 instructions: 60000000 cycles: 372748470 heartbeat IPC: 0.134216 cumulative IPC: 0.136418 (Simulation time: 3 hr 43 min 27 sec) 
Heartbeat CPU 0 instructions: 61000001 cycles: 379221224 heartbeat IPC: 0.154494 cumulative IPC: 0.136731 (Simulation time: 3 hr 46 min 40 sec) 
Heartbeat CPU 0 instructions: 62000001 cycles: 386136601 heartbeat IPC: 0.144605 cumulative IPC: 0.136875 (Simulation time: 3 hr 50 min 7 sec) 
Heartbeat CPU 0 instructions: 63000000 cycles: 393322488 heartbeat IPC: 0.139162 cumulative IPC: 0.136917 (Simulation time: 3 hr 53 min 28 sec) 
Heartbeat CPU 0 instructions: 64000000 cycles: 402571146 heartbeat IPC: 0.108124 cumulative IPC: 0.136245 (Simulation time: 3 hr 57 min 0 sec) 
Heartbeat CPU 0 instructions: 65000000 cycles: 409545344 heartbeat IPC: 0.143386 cumulative IPC: 0.136369 (Simulation time: 4 hr 0 min 25 sec) 
Heartbeat CPU 0 instructions: 66000001 cycles: 416377014 heartbeat IPC: 0.146377 cumulative IPC: 0.136535 (Simulation time: 4 hr 3 min 39 sec) 
Heartbeat CPU 0 instructions: 67000000 cycles: 423767021 heartbeat IPC: 0.135318 cumulative IPC: 0.136514 (Simulation time: 4 hr 7 min 5 sec) 
Heartbeat CPU 0 instructions: 68000000 cycles: 431324022 heartbeat IPC: 0.132328 cumulative IPC: 0.136439 (Simulation time: 4 hr 10 min 4 sec) 
Heartbeat CPU 0 instructions: 69000000 cycles: 443297910 heartbeat IPC: 0.0835151 cumulative IPC: 0.13499 (Simulation time: 4 hr 13 min 48 sec) 
Heartbeat CPU 0 instructions: 70000000 cycles: 449941880 heartbeat IPC: 0.150512 cumulative IPC: 0.135222 (Simulation time: 4 hr 16 min 29 sec) 
Heartbeat CPU 0 instructions: 71000002 cycles: 456981607 heartbeat IPC: 0.142051 cumulative IPC: 0.135329 (Simulation time: 4 hr 19 min 12 sec) 
Heartbeat CPU 0 instructions: 72000000 cycles: 464507128 heartbeat IPC: 0.132881 cumulative IPC: 0.135288 (Simulation time: 4 hr 21 min 52 sec) 
Heartbeat CPU 0 instructions: 73000003 cycles: 472067474 heartbeat IPC: 0.132269 cumulative IPC: 0.135239 (Simulation time: 4 hr 24 min 27 sec) 
Heartbeat CPU 0 instructions: 74000001 cycles: 481306713 heartbeat IPC: 0.108234 cumulative IPC: 0.134714 (Simulation time: 4 hr 27 min 0 sec) 
Heartbeat CPU 0 instructions: 75000000 cycles: 487843678 heartbeat IPC: 0.152976 cumulative IPC: 0.134962 (Simulation time: 4 hr 29 min 23 sec) 
Heartbeat CPU 0 instructions: 76000000 cycles: 493928726 heartbeat IPC: 0.164337 cumulative IPC: 0.135329 (Simulation time: 4 hr 31 min 20 sec) 
Heartbeat CPU 0 instructions: 77000000 cycles: 500132444 heartbeat IPC: 0.161194 cumulative IPC: 0.135654 (Simulation time: 4 hr 33 min 17 sec) 
Heartbeat CPU 0 instructions: 78000001 cycles: 506203798 heartbeat IPC: 0.164708 cumulative IPC: 0.136006 (Simulation time: 4 hr 35 min 11 sec) 
Heartbeat CPU 0 instructions: 79000000 cycles: 515116603 heartbeat IPC: 0.112198 cumulative IPC: 0.135589 (Simulation time: 4 hr 37 min 24 sec) 
Heartbeat CPU 0 instructions: 80000000 cycles: 521293689 heartbeat IPC: 0.161889 cumulative IPC: 0.135905 (Simulation time: 4 hr 39 min 9 sec) 
Heartbeat CPU 0 instructions: 81000001 cycles: 528872375 heartbeat IPC: 0.131949 cumulative IPC: 0.135847 (Simulation time: 4 hr 40 min 54 sec) 
Heartbeat CPU 0 instructions: 82000001 cycles: 535762717 heartbeat IPC: 0.145131 cumulative IPC: 0.135968 (Simulation time: 4 hr 42 min 34 sec) 
Heartbeat CPU 0 instructions: 83000002 cycles: 541462012 heartbeat IPC: 0.17546 cumulative IPC: 0.136389 (Simulation time: 4 hr 43 min 58 sec) 
Heartbeat CPU 0 instructions: 84000000 cycles: 547840048 heartbeat IPC: 0.156788 cumulative IPC: 0.136629 (Simulation time: 4 hr 45 min 17 sec) 
Heartbeat CPU 0 instructions: 85000000 cycles: 554823446 heartbeat IPC: 0.143197 cumulative IPC: 0.136713 (Simulation time: 4 hr 46 min 32 sec) 
Heartbeat CPU 0 instructions: 86000001 cycles: 562891537 heartbeat IPC: 0.123945 cumulative IPC: 0.136528 (Simulation time: 4 hr 47 min 46 sec) 
Heartbeat CPU 0 instructions: 87000000 cycles: 568746874 heartbeat IPC: 0.170784 cumulative IPC: 0.136884 (Simulation time: 4 hr 48 min 48 sec) 
Heartbeat CPU 0 instructions: 88000000 cycles: 574969539 heartbeat IPC: 0.160703 cumulative IPC: 0.137145 (Simulation time: 4 hr 49 min 53 sec) 
Heartbeat CPU 0 instructions: 89000002 cycles: 581148556 heartbeat IPC: 0.161838 cumulative IPC: 0.13741 (Simulation time: 4 hr 50 min 49 sec) 
Heartbeat CPU 0 instructions: 90000002 cycles: 587199091 heartbeat IPC: 0.165275 cumulative IPC: 0.1377 (Simulation time: 4 hr 51 min 42 sec) 
Heartbeat CPU 0 instructions: 91000001 cycles: 596063998 heartbeat IPC: 0.112804 cumulative IPC: 0.137326 (Simulation time: 4 hr 52 min 38 sec) 
Heartbeat CPU 0 instructions: 92000000 cycles: 602764397 heartbeat IPC: 0.149245 cumulative IPC: 0.13746 (Simulation time: 4 hr 53 min 21 sec) 
Heartbeat CPU 0 instructions: 93000003 cycles: 610133497 heartbeat IPC: 0.135702 cumulative IPC: 0.137439 (Simulation time: 4 hr 54 min 0 sec) 
Heartbeat CPU 0 instructions: 94000000 cycles: 617817733 heartbeat IPC: 0.130136 cumulative IPC: 0.137347 (Simulation time: 4 hr 54 min 39 sec) 
Heartbeat CPU 0 instructions: 95000000 cycles: 624399794 heartbeat IPC: 0.151928 cumulative IPC: 0.137502 (Simulation time: 4 hr 55 min 15 sec) 
Heartbeat CPU 0 instructions: 96000000 cycles: 633558746 heartbeat IPC: 0.109183 cumulative IPC: 0.137089 (Simulation time: 4 hr 55 min 54 sec) 
Heartbeat CPU 0 instructions: 97000000 cycles: 640262341 heartbeat IPC: 0.149174 cumulative IPC: 0.137216 (Simulation time: 4 hr 56 min 25 sec) 
Heartbeat CPU 0 instructions: 98000003 cycles: 647982643 heartbeat IPC: 0.129529 cumulative IPC: 0.137124 (Simulation time: 4 hr 56 min 52 sec) 
Heartbeat CPU 0 instructions: 99000001 cycles: 655950630 heartbeat IPC: 0.125502 cumulative IPC: 0.136981 (Simulation time: 4 hr 57 min 17 sec) 
Heartbeat CPU 0 instructions: 100000000 cycles: 663373540 heartbeat IPC: 0.134718 cumulative IPC: 0.136956 (Simulation time: 4 hr 57 min 41 sec) 
Heartbeat CPU 0 instructions: 101000000 cycles: 672362626 heartbeat IPC: 0.111246 cumulative IPC: 0.136609 (Simulation time: 4 hr 58 min 6 sec) 
Heartbeat CPU 0 instructions: 102000001 cycles: 678316945 heartbeat IPC: 0.167945 cumulative IPC: 0.136886 (Simulation time: 4 hr 58 min 26 sec) 
Heartbeat CPU 0 instructions: 103000000 cycles: 684842706 heartbeat IPC: 0.153239 cumulative IPC: 0.137044 (Simulation time: 4 hr 58 min 44 sec) 
Heartbeat CPU 0 instructions: 104000000 cycles: 691080050 heartbeat IPC: 0.160325 cumulative IPC: 0.137256 (Simulation time: 4 hr 59 min 3 sec) 
Heartbeat CPU 0 instructions: 105000000 cycles: 697015915 heartbeat IPC: 0.168467 cumulative IPC: 0.137524 (Simulation time: 4 hr 59 min 21 sec) 
Heartbeat CPU 0 instructions: 106000000 cycles: 706130663 heartbeat IPC: 0.109712 cumulative IPC: 0.137162 (Simulation time: 4 hr 59 min 39 sec) 
Heartbeat CPU 0 instructions: 107000002 cycles: 712980955 heartbeat IPC: 0.145979 cumulative IPC: 0.137247 (Simulation time: 4 hr 59 min 55 sec) 
Heartbeat CPU 0 instructions: 108000000 cycles: 722422435 heartbeat IPC: 0.105915 cumulative IPC: 0.136834 (Simulation time: 5 hr 0 min 11 sec) 
Heartbeat CPU 0 instructions: 109000003 cycles: 728929808 heartbeat IPC: 0.153672 cumulative IPC: 0.136986 (Simulation time: 5 hr 0 min 26 sec) 
Heartbeat CPU 0 instructions: 110000003 cycles: 735006966 heartbeat IPC: 0.164551 cumulative IPC: 0.137216 (Simulation time: 5 hr 0 min 38 sec) 
Finished CPU 0 instructions: 100000001 cycles: 728779786 cummulative IPC: 0.137216 (Simulation time: 5 hr 0 min 38 sec) 

ChampSim completed all CPUs

Region of Interest Statistics

CPU 0 cummulative IPC: 0.137216 instructions: 100000001 cycles: 728779786
LLC TOTAL     ACCESS:    8754330  HIT:    2584801  MISS:    6169529
LLC LOAD      ACCESS:    1890447  HIT:     471859  MISS:    1418588
LLC RFO       ACCESS:    1828628  HIT:     300823  MISS:    1527805
LLC PREFETCH  ACCESS:    2272455  HIT:     242795  MISS:    2029660
LLC WRITEBACK ACCESS:    2762800  HIT:    1569324  MISS:    1193476
Insertion Distribution: 
	LOAD 552468 0 462912 509978 
	RFO 314960 0 257736 1250421 
	PREF 0 136796 469665 1641166 
	WRITEBACK 0 0 0 1418776 
Total Prefetch Downgrades: 138054
