
*** ChampSim Multicore Out-of-Order Simulator ***

Warmup Instructions: 10000000
Simulation Instructions: 100000000
Configuration: 2
Number of CPUs: 1
LLC sets: 2048
LLC ways: 16
Off-chip DRAM Channels: 1 Width: 64-bit Data Rate: 1600 MT/s

CPU 0 runs /datasets/cs240c-wi22-a00-public/data/Assignment2-gz/perlbench_53B.trace.gz
CPU 0 L1D next line prefetcher
CPU 0 L2C IP-based stride prefetcher
Initialize SRRIP state
Heartbeat CPU 0 instructions: 1000000 cycles: 615802 heartbeat IPC: 1.6239 cumulative IPC: 1.6239 (Simulation time: 0 hr 3 min 2 sec) 
Heartbeat CPU 0 instructions: 2000001 cycles: 1252973 heartbeat IPC: 1.56944 cumulative IPC: 1.5962 (Simulation time: 0 hr 6 min 0 sec) 
Heartbeat CPU 0 instructions: 3000002 cycles: 1908459 heartbeat IPC: 1.52559 cumulative IPC: 1.57195 (Simulation time: 0 hr 9 min 1 sec) 
Heartbeat CPU 0 instructions: 4000000 cycles: 2523972 heartbeat IPC: 1.62466 cumulative IPC: 1.5848 (Simulation time: 0 hr 12 min 6 sec) 
Heartbeat CPU 0 instructions: 5000001 cycles: 3151982 heartbeat IPC: 1.59233 cumulative IPC: 1.5863 (Simulation time: 0 hr 15 min 3 sec) 
Heartbeat CPU 0 instructions: 6000001 cycles: 3767489 heartbeat IPC: 1.62468 cumulative IPC: 1.59257 (Simulation time: 0 hr 17 min 58 sec) 
Heartbeat CPU 0 instructions: 7000002 cycles: 4390292 heartbeat IPC: 1.60565 cumulative IPC: 1.59443 (Simulation time: 0 hr 21 min 5 sec) 
Heartbeat CPU 0 instructions: 8000000 cycles: 5000686 heartbeat IPC: 1.63828 cumulative IPC: 1.59978 (Simulation time: 0 hr 24 min 6 sec) 
Heartbeat CPU 0 instructions: 9000000 cycles: 5652422 heartbeat IPC: 1.53436 cumulative IPC: 1.59224 (Simulation time: 0 hr 27 min 1 sec) 
Heartbeat CPU 0 instructions: 10000001 cycles: 6287695 heartbeat IPC: 1.57413 cumulative IPC: 1.59041 (Simulation time: 0 hr 29 min 53 sec) 

Warmup complete CPU 0 instructions: 10000001 cycles: 6287695 (Simulation time: 0 hr 29 min 53 sec) 

Heartbeat CPU 0 instructions: 11000000 cycles: 9157709 heartbeat IPC: 0.34843 cumulative IPC: 0.34843 (Simulation time: 0 hr 32 min 53 sec) 
Heartbeat CPU 0 instructions: 12000000 cycles: 12019710 heartbeat IPC: 0.349406 cumulative IPC: 0.348917 (Simulation time: 0 hr 36 min 9 sec) 
Heartbeat CPU 0 instructions: 13000000 cycles: 14373058 heartbeat IPC: 0.424927 cumulative IPC: 0.371041 (Simulation time: 0 hr 39 min 3 sec) 
Heartbeat CPU 0 instructions: 14000000 cycles: 16883735 heartbeat IPC: 0.398299 cumulative IPC: 0.377499 (Simulation time: 0 hr 42 min 17 sec) 
Heartbeat CPU 0 instructions: 15000001 cycles: 19640252 heartbeat IPC: 0.362777 cumulative IPC: 0.37446 (Simulation time: 0 hr 45 min 30 sec) 
Heartbeat CPU 0 instructions: 16000000 cycles: 22305725 heartbeat IPC: 0.375168 cumulative IPC: 0.374578 (Simulation time: 0 hr 48 min 40 sec) 
Heartbeat CPU 0 instructions: 17000001 cycles: 24980955 heartbeat IPC: 0.3738 cumulative IPC: 0.374467 (Simulation time: 0 hr 51 min 40 sec) 
Heartbeat CPU 0 instructions: 18000002 cycles: 27837444 heartbeat IPC: 0.35008 cumulative IPC: 0.371234 (Simulation time: 0 hr 55 min 5 sec) 
Heartbeat CPU 0 instructions: 19000000 cycles: 30659915 heartbeat IPC: 0.354299 cumulative IPC: 0.369273 (Simulation time: 0 hr 58 min 2 sec) 
Heartbeat CPU 0 instructions: 20000000 cycles: 33514748 heartbeat IPC: 0.350283 cumulative IPC: 0.367282 (Simulation time: 1 hr 1 min 25 sec) 
Heartbeat CPU 0 instructions: 21000000 cycles: 35873201 heartbeat IPC: 0.424007 cumulative IPC: 0.371804 (Simulation time: 1 hr 4 min 47 sec) 
Heartbeat CPU 0 instructions: 22000000 cycles: 37950137 heartbeat IPC: 0.481478 cumulative IPC: 0.378998 (Simulation time: 1 hr 8 min 1 sec) 
Heartbeat CPU 0 instructions: 23000001 cycles: 39880546 heartbeat IPC: 0.518025 cumulative IPC: 0.386987 (Simulation time: 1 hr 10 min 54 sec) 
Heartbeat CPU 0 instructions: 24000000 cycles: 42277896 heartbeat IPC: 0.417127 cumulative IPC: 0.388995 (Simulation time: 1 hr 14 min 50 sec) 
Heartbeat CPU 0 instructions: 25000000 cycles: 44289718 heartbeat IPC: 0.497062 cumulative IPC: 0.394716 (Simulation time: 1 hr 17 min 39 sec) 
Heartbeat CPU 0 instructions: 26000001 cycles: 46274123 heartbeat IPC: 0.50393 cumulative IPC: 0.400136 (Simulation time: 1 hr 20 min 40 sec) 
Heartbeat CPU 0 instructions: 27000002 cycles: 48568850 heartbeat IPC: 0.435782 cumulative IPC: 0.40207 (Simulation time: 1 hr 24 min 15 sec) 
Heartbeat CPU 0 instructions: 28000000 cycles: 51139186 heartbeat IPC: 0.389053 cumulative IPC: 0.401324 (Simulation time: 1 hr 27 min 52 sec) 
Heartbeat CPU 0 instructions: 29000000 cycles: 53458416 heartbeat IPC: 0.431178 cumulative IPC: 0.402792 (Simulation time: 1 hr 31 min 21 sec) 
Heartbeat CPU 0 instructions: 30000000 cycles: 55500866 heartbeat IPC: 0.489608 cumulative IPC: 0.406395 (Simulation time: 1 hr 34 min 36 sec) 
Heartbeat CPU 0 instructions: 31000001 cycles: 57487846 heartbeat IPC: 0.503277 cumulative IPC: 0.410155 (Simulation time: 1 hr 37 min 40 sec) 
Heartbeat CPU 0 instructions: 32000000 cycles: 59485256 heartbeat IPC: 0.500648 cumulative IPC: 0.413553 (Simulation time: 1 hr 40 min 49 sec) 
Heartbeat CPU 0 instructions: 33000003 cycles: 61940911 heartbeat IPC: 0.407225 cumulative IPC: 0.413274 (Simulation time: 1 hr 44 min 3 sec) 
Heartbeat CPU 0 instructions: 34000000 cycles: 64638543 heartbeat IPC: 0.370694 cumulative IPC: 0.411305 (Simulation time: 1 hr 47 min 8 sec) 
Heartbeat CPU 0 instructions: 35000000 cycles: 67189280 heartbeat IPC: 0.392044 cumulative IPC: 0.410498 (Simulation time: 1 hr 50 min 19 sec) 
Heartbeat CPU 0 instructions: 36000000 cycles: 69980215 heartbeat IPC: 0.358303 cumulative IPC: 0.408211 (Simulation time: 1 hr 53 min 54 sec) 
Heartbeat CPU 0 instructions: 37000002 cycles: 72824953 heartbeat IPC: 0.351527 cumulative IPC: 0.405788 (Simulation time: 1 hr 57 min 21 sec) 
Heartbeat CPU 0 instructions: 38000000 cycles: 75695668 heartbeat IPC: 0.348345 cumulative IPC: 0.403412 (Simulation time: 2 hr 0 min 29 sec) 
Heartbeat CPU 0 instructions: 39000001 cycles: 78365324 heartbeat IPC: 0.37458 cumulative IPC: 0.402344 (Simulation time: 2 hr 3 min 41 sec) 
Heartbeat CPU 0 instructions: 40000000 cycles: 80964995 heartbeat IPC: 0.384664 cumulative IPC: 0.401728 (Simulation time: 2 hr 6 min 45 sec) 
Heartbeat CPU 0 instructions: 41000002 cycles: 83837881 heartbeat IPC: 0.348083 cumulative IPC: 0.399741 (Simulation time: 2 hr 9 min 50 sec) 
Heartbeat CPU 0 instructions: 42000000 cycles: 86440895 heartbeat IPC: 0.384169 cumulative IPC: 0.399235 (Simulation time: 2 hr 13 min 7 sec) 
Heartbeat CPU 0 instructions: 43000002 cycles: 89281336 heartbeat IPC: 0.352059 cumulative IPC: 0.397621 (Simulation time: 2 hr 16 min 9 sec) 
Heartbeat CPU 0 instructions: 44000000 cycles: 91945736 heartbeat IPC: 0.375318 cumulative IPC: 0.396927 (Simulation time: 2 hr 19 min 45 sec) 
Heartbeat CPU 0 instructions: 45000001 cycles: 93406943 heartbeat IPC: 0.684366 cumulative IPC: 0.401748 (Simulation time: 2 hr 22 min 12 sec) 
Heartbeat CPU 0 instructions: 46000000 cycles: 95432637 heartbeat IPC: 0.493657 cumulative IPC: 0.403837 (Simulation time: 2 hr 25 min 11 sec) 
Heartbeat CPU 0 instructions: 47000002 cycles: 97348040 heartbeat IPC: 0.522084 cumulative IPC: 0.406324 (Simulation time: 2 hr 28 min 27 sec) 
Heartbeat CPU 0 instructions: 48000000 cycles: 99268255 heartbeat IPC: 0.520774 cumulative IPC: 0.408688 (Simulation time: 2 hr 31 min 25 sec) 
Heartbeat CPU 0 instructions: 49000000 cycles: 101620664 heartbeat IPC: 0.425096 cumulative IPC: 0.409092 (Simulation time: 2 hr 34 min 33 sec) 
Heartbeat CPU 0 instructions: 50000002 cycles: 103484498 heartbeat IPC: 0.53653 cumulative IPC: 0.411536 (Simulation time: 2 hr 37 min 25 sec) 
Heartbeat CPU 0 instructions: 51000000 cycles: 105415335 heartbeat IPC: 0.517909 cumulative IPC: 0.413608 (Simulation time: 2 hr 40 min 16 sec) 
Heartbeat CPU 0 instructions: 52000000 cycles: 107330340 heartbeat IPC: 0.522192 cumulative IPC: 0.415666 (Simulation time: 2 hr 43 min 17 sec) 
Heartbeat CPU 0 instructions: 53000002 cycles: 109281415 heartbeat IPC: 0.512539 cumulative IPC: 0.417501 (Simulation time: 2 hr 46 min 4 sec) 
Heartbeat CPU 0 instructions: 54000000 cycles: 112176027 heartbeat IPC: 0.345469 cumulative IPC: 0.415532 (Simulation time: 2 hr 49 min 7 sec) 
Heartbeat CPU 0 instructions: 55000000 cycles: 114663213 heartbeat IPC: 0.402061 cumulative IPC: 0.415223 (Simulation time: 2 hr 52 min 17 sec) 
Heartbeat CPU 0 instructions: 56000000 cycles: 117465935 heartbeat IPC: 0.356796 cumulative IPC: 0.41375 (Simulation time: 2 hr 55 min 54 sec) 
Heartbeat CPU 0 instructions: 57000001 cycles: 120455820 heartbeat IPC: 0.334461 cumulative IPC: 0.411674 (Simulation time: 2 hr 59 min 20 sec) 
Heartbeat CPU 0 instructions: 58000003 cycles: 123424842 heartbeat IPC: 0.336812 cumulative IPC: 0.409776 (Simulation time: 3 hr 3 min 26 sec) 
Heartbeat CPU 0 instructions: 59000002 cycles: 126237230 heartbeat IPC: 0.355569 cumulative IPC: 0.408505 (Simulation time: 3 hr 6 min 31 sec) 
Heartbeat CPU 0 instructions: 60000000 cycles: 128999649 heartbeat IPC: 0.362001 cumulative IPC: 0.407458 (Simulation time: 3 hr 9 min 42 sec) 
Heartbeat CPU 0 instructions: 61000002 cycles: 131628325 heartbeat IPC: 0.38042 cumulative IPC: 0.406891 (Simulation time: 3 hr 13 min 11 sec) 
Heartbeat CPU 0 instructions: 62000002 cycles: 134308153 heartbeat IPC: 0.373158 cumulative IPC: 0.406185 (Simulation time: 3 hr 16 min 28 sec) 
Heartbeat CPU 0 instructions: 63000001 cycles: 136975422 heartbeat IPC: 0.374915 cumulative IPC: 0.405547 (Simulation time: 3 hr 19 min 44 sec) 
Heartbeat CPU 0 instructions: 64000000 cycles: 139631846 heartbeat IPC: 0.376446 cumulative IPC: 0.404967 (Simulation time: 3 hr 22 min 59 sec) 
Heartbeat CPU 0 instructions: 65000003 cycles: 142269480 heartbeat IPC: 0.379129 cumulative IPC: 0.404466 (Simulation time: 3 hr 26 min 18 sec) 
Heartbeat CPU 0 instructions: 66000001 cycles: 144897478 heartbeat IPC: 0.380517 cumulative IPC: 0.404012 (Simulation time: 3 hr 29 min 30 sec) 
Heartbeat CPU 0 instructions: 67000001 cycles: 147510656 heartbeat IPC: 0.382676 cumulative IPC: 0.403617 (Simulation time: 3 hr 32 min 57 sec) 
Heartbeat CPU 0 instructions: 68000000 cycles: 150178939 heartbeat IPC: 0.374772 cumulative IPC: 0.403082 (Simulation time: 3 hr 36 min 11 sec) 
Heartbeat CPU 0 instructions: 69000001 cycles: 152817114 heartbeat IPC: 0.37905 cumulative IPC: 0.40265 (Simulation time: 3 hr 39 min 17 sec) 
Heartbeat CPU 0 instructions: 70000001 cycles: 155428031 heartbeat IPC: 0.383007 cumulative IPC: 0.402306 (Simulation time: 3 hr 42 min 12 sec) 
Heartbeat CPU 0 instructions: 71000001 cycles: 158145382 heartbeat IPC: 0.368005 cumulative IPC: 0.401692 (Simulation time: 3 hr 45 min 50 sec) 
Heartbeat CPU 0 instructions: 72000000 cycles: 160751106 heartbeat IPC: 0.38377 cumulative IPC: 0.40139 (Simulation time: 3 hr 49 min 19 sec) 
Heartbeat CPU 0 instructions: 73000002 cycles: 163402454 heartbeat IPC: 0.377167 cumulative IPC: 0.400981 (Simulation time: 3 hr 52 min 34 sec) 
Heartbeat CPU 0 instructions: 74000001 cycles: 166082177 heartbeat IPC: 0.373173 cumulative IPC: 0.400514 (Simulation time: 3 hr 55 min 38 sec) 
Heartbeat CPU 0 instructions: 75000001 cycles: 168740901 heartbeat IPC: 0.37612 cumulative IPC: 0.400115 (Simulation time: 3 hr 58 min 38 sec) 
Heartbeat CPU 0 instructions: 76000000 cycles: 171381990 heartbeat IPC: 0.378631 cumulative IPC: 0.399772 (Simulation time: 4 hr 1 min 33 sec) 
Heartbeat CPU 0 instructions: 77000002 cycles: 174054698 heartbeat IPC: 0.374153 cumulative IPC: 0.399363 (Simulation time: 4 hr 4 min 27 sec) 
Heartbeat CPU 0 instructions: 78000000 cycles: 176708359 heartbeat IPC: 0.376837 cumulative IPC: 0.399013 (Simulation time: 4 hr 7 min 22 sec) 
Heartbeat CPU 0 instructions: 79000002 cycles: 179369469 heartbeat IPC: 0.375784 cumulative IPC: 0.398656 (Simulation time: 4 hr 10 min 15 sec) 
Heartbeat CPU 0 instructions: 80000000 cycles: 182004197 heartbeat IPC: 0.379545 cumulative IPC: 0.398369 (Simulation time: 4 hr 12 min 56 sec) 
Heartbeat CPU 0 instructions: 81000000 cycles: 184618543 heartbeat IPC: 0.382505 cumulative IPC: 0.398136 (Simulation time: 4 hr 15 min 35 sec) 
Heartbeat CPU 0 instructions: 82000002 cycles: 187295447 heartbeat IPC: 0.373567 cumulative IPC: 0.397773 (Simulation time: 4 hr 18 min 26 sec) 
Heartbeat CPU 0 instructions: 83000000 cycles: 189941089 heartbeat IPC: 0.377979 cumulative IPC: 0.397488 (Simulation time: 4 hr 21 min 7 sec) 
Heartbeat CPU 0 instructions: 84000000 cycles: 192597010 heartbeat IPC: 0.376517 cumulative IPC: 0.397189 (Simulation time: 4 hr 23 min 37 sec) 
Heartbeat CPU 0 instructions: 85000001 cycles: 195273320 heartbeat IPC: 0.373649 cumulative IPC: 0.396856 (Simulation time: 4 hr 26 min 10 sec) 
Heartbeat CPU 0 instructions: 86000000 cycles: 197769411 heartbeat IPC: 0.400626 cumulative IPC: 0.396905 (Simulation time: 4 hr 28 min 35 sec) 
Heartbeat CPU 0 instructions: 87000000 cycles: 199901544 heartbeat IPC: 0.469014 cumulative IPC: 0.397699 (Simulation time: 4 hr 30 min 22 sec) 
Heartbeat CPU 0 instructions: 88000000 cycles: 201898837 heartbeat IPC: 0.500678 cumulative IPC: 0.39875 (Simulation time: 4 hr 32 min 3 sec) 
Heartbeat CPU 0 instructions: 89000001 cycles: 203975043 heartbeat IPC: 0.481648 cumulative IPC: 0.399621 (Simulation time: 4 hr 33 min 46 sec) 
Heartbeat CPU 0 instructions: 90000000 cycles: 206644540 heartbeat IPC: 0.374602 cumulative IPC: 0.399288 (Simulation time: 4 hr 35 min 48 sec) 
Heartbeat CPU 0 instructions: 91000001 cycles: 209408171 heartbeat IPC: 0.361843 cumulative IPC: 0.398778 (Simulation time: 4 hr 37 min 46 sec) 
Heartbeat CPU 0 instructions: 92000000 cycles: 212089782 heartbeat IPC: 0.37291 cumulative IPC: 0.398441 (Simulation time: 4 hr 39 min 27 sec) 
Heartbeat CPU 0 instructions: 93000000 cycles: 214742097 heartbeat IPC: 0.377029 cumulative IPC: 0.398169 (Simulation time: 4 hr 41 min 1 sec) 
Heartbeat CPU 0 instructions: 94000002 cycles: 217389636 heartbeat IPC: 0.37771 cumulative IPC: 0.397912 (Simulation time: 4 hr 42 min 33 sec) 
Heartbeat CPU 0 instructions: 95000000 cycles: 220009037 heartbeat IPC: 0.381766 cumulative IPC: 0.397714 (Simulation time: 4 hr 44 min 1 sec) 
Heartbeat CPU 0 instructions: 96000000 cycles: 222673243 heartbeat IPC: 0.375346 cumulative IPC: 0.397439 (Simulation time: 4 hr 45 min 12 sec) 
Heartbeat CPU 0 instructions: 97000000 cycles: 225313671 heartbeat IPC: 0.378726 cumulative IPC: 0.397213 (Simulation time: 4 hr 46 min 20 sec) 
Heartbeat CPU 0 instructions: 98000000 cycles: 227935975 heartbeat IPC: 0.381344 cumulative IPC: 0.397025 (Simulation time: 4 hr 47 min 27 sec) 
Heartbeat CPU 0 instructions: 99000002 cycles: 230545000 heartbeat IPC: 0.383286 cumulative IPC: 0.396866 (Simulation time: 4 hr 48 min 28 sec) 
Heartbeat CPU 0 instructions: 100000000 cycles: 233171184 heartbeat IPC: 0.38078 cumulative IPC: 0.396679 (Simulation time: 4 hr 49 min 30 sec) 
Heartbeat CPU 0 instructions: 101000002 cycles: 235825459 heartbeat IPC: 0.376751 cumulative IPC: 0.396449 (Simulation time: 4 hr 50 min 31 sec) 
Heartbeat CPU 0 instructions: 102000000 cycles: 238455853 heartbeat IPC: 0.38017 cumulative IPC: 0.396264 (Simulation time: 4 hr 51 min 21 sec) 
Heartbeat CPU 0 instructions: 103000000 cycles: 241081603 heartbeat IPC: 0.380844 cumulative IPC: 0.396092 (Simulation time: 4 hr 52 min 14 sec) 
Heartbeat CPU 0 instructions: 104000000 cycles: 243743698 heartbeat IPC: 0.375644 cumulative IPC: 0.395863 (Simulation time: 4 hr 53 min 3 sec) 
Heartbeat CPU 0 instructions: 105000003 cycles: 245923262 heartbeat IPC: 0.458809 cumulative IPC: 0.396435 (Simulation time: 4 hr 53 min 41 sec) 
Heartbeat CPU 0 instructions: 106000000 cycles: 247900436 heartbeat IPC: 0.505771 cumulative IPC: 0.39733 (Simulation time: 4 hr 54 min 16 sec) 
Heartbeat CPU 0 instructions: 107000003 cycles: 249875788 heartbeat IPC: 0.50624 cumulative IPC: 0.398213 (Simulation time: 4 hr 54 min 44 sec) 
Heartbeat CPU 0 instructions: 108000000 cycles: 252624763 heartbeat IPC: 0.363771 cumulative IPC: 0.397829 (Simulation time: 4 hr 55 min 17 sec) 
Heartbeat CPU 0 instructions: 109000001 cycles: 255323573 heartbeat IPC: 0.370534 cumulative IPC: 0.397533 (Simulation time: 4 hr 55 min 47 sec) 
Heartbeat CPU 0 instructions: 110000000 cycles: 257840305 heartbeat IPC: 0.39734 cumulative IPC: 0.397531 (Simulation time: 4 hr 56 min 16 sec) 
Finished CPU 0 instructions: 100000000 cycles: 251552611 cummulative IPC: 0.397531 (Simulation time: 4 hr 56 min 16 sec) 

ChampSim completed all CPUs

Region of Interest Statistics

CPU 0 cummulative IPC: 0.397531 instructions: 100000000 cycles: 251552611
LLC TOTAL     ACCESS:     656701  HIT:     614470  MISS:      42231
LLC LOAD      ACCESS:     310902  HIT:     302721  MISS:       8181
LLC RFO       ACCESS:      30806  HIT:      26515  MISS:       4291
LLC PREFETCH  ACCESS:     212712  HIT:     183579  MISS:      29133
LLC WRITEBACK ACCESS:     102281  HIT:     101655  MISS:        626
Insertion Distribution: 
	LOAD 3725 0 17925 227 
	RFO 881 0 5163 57 
	PREF 0 706 27751 13083 
	WRITEBACK 0 0 0 887 
Total Prefetch Downgrades: 3462
