
*** ChampSim Multicore Out-of-Order Simulator ***

Warmup Instructions: 10000000
Simulation Instructions: 100000000
Configuration: 2
Number of CPUs: 1
LLC sets: 2048
LLC ways: 16
Off-chip DRAM Channels: 1 Width: 64-bit Data Rate: 1600 MT/s

CPU 0 runs /datasets/cs240c-wi22-a00-public/data/Assignment2-gz/zeusmp_300B.trace.gz
CPU 0 L1D next line prefetcher
CPU 0 L2C IP-based stride prefetcher
Initialize SRRIP state
Heartbeat CPU 0 instructions: 1000003 cycles: 509580 heartbeat IPC: 1.96241 cumulative IPC: 1.96241 (Simulation time: 0 hr 2 min 31 sec) 
Heartbeat CPU 0 instructions: 2000003 cycles: 1062148 heartbeat IPC: 1.80973 cumulative IPC: 1.88298 (Simulation time: 0 hr 5 min 4 sec) 
Heartbeat CPU 0 instructions: 3000002 cycles: 1606421 heartbeat IPC: 1.83731 cumulative IPC: 1.86751 (Simulation time: 0 hr 7 min 31 sec) 
Heartbeat CPU 0 instructions: 4000000 cycles: 2093210 heartbeat IPC: 2.05427 cumulative IPC: 1.91094 (Simulation time: 0 hr 9 min 56 sec) 
Heartbeat CPU 0 instructions: 5000001 cycles: 2575892 heartbeat IPC: 2.07176 cumulative IPC: 1.94108 (Simulation time: 0 hr 12 min 22 sec) 
Heartbeat CPU 0 instructions: 6000000 cycles: 3062581 heartbeat IPC: 2.0547 cumulative IPC: 1.95913 (Simulation time: 0 hr 14 min 50 sec) 
Heartbeat CPU 0 instructions: 7000001 cycles: 3590722 heartbeat IPC: 1.89344 cumulative IPC: 1.94947 (Simulation time: 0 hr 17 min 17 sec) 
Heartbeat CPU 0 instructions: 8000000 cycles: 4144747 heartbeat IPC: 1.80497 cumulative IPC: 1.93015 (Simulation time: 0 hr 19 min 36 sec) 
Heartbeat CPU 0 instructions: 9000000 cycles: 4672649 heartbeat IPC: 1.89429 cumulative IPC: 1.9261 (Simulation time: 0 hr 22 min 2 sec) 
Heartbeat CPU 0 instructions: 10000002 cycles: 5158943 heartbeat IPC: 2.05637 cumulative IPC: 1.93838 (Simulation time: 0 hr 24 min 33 sec) 

Warmup complete CPU 0 instructions: 10000002 cycles: 5158943 (Simulation time: 0 hr 24 min 33 sec) 

Heartbeat CPU 0 instructions: 11000003 cycles: 5845598 heartbeat IPC: 1.45634 cumulative IPC: 1.45634 (Simulation time: 0 hr 27 min 4 sec) 
Heartbeat CPU 0 instructions: 12000000 cycles: 6524572 heartbeat IPC: 1.47281 cumulative IPC: 1.46453 (Simulation time: 0 hr 29 min 36 sec) 
Heartbeat CPU 0 instructions: 13000000 cycles: 7322778 heartbeat IPC: 1.25281 cumulative IPC: 1.38643 (Simulation time: 0 hr 31 min 53 sec) 
Heartbeat CPU 0 instructions: 14000000 cycles: 8136181 heartbeat IPC: 1.2294 cumulative IPC: 1.34353 (Simulation time: 0 hr 34 min 11 sec) 
Heartbeat CPU 0 instructions: 15000002 cycles: 8863702 heartbeat IPC: 1.37453 cumulative IPC: 1.34962 (Simulation time: 0 hr 36 min 17 sec) 
Heartbeat CPU 0 instructions: 16000000 cycles: 9547173 heartbeat IPC: 1.46312 cumulative IPC: 1.36729 (Simulation time: 0 hr 38 min 27 sec) 
Heartbeat CPU 0 instructions: 17000003 cycles: 10235722 heartbeat IPC: 1.45233 cumulative IPC: 1.37883 (Simulation time: 0 hr 40 min 39 sec) 
Heartbeat CPU 0 instructions: 18000000 cycles: 10931493 heartbeat IPC: 1.43725 cumulative IPC: 1.38587 (Simulation time: 0 hr 42 min 49 sec) 
Heartbeat CPU 0 instructions: 19000003 cycles: 11749268 heartbeat IPC: 1.22283 cumulative IPC: 1.36564 (Simulation time: 0 hr 44 min 59 sec) 
Heartbeat CPU 0 instructions: 20000000 cycles: 12561201 heartbeat IPC: 1.23163 cumulative IPC: 1.35094 (Simulation time: 0 hr 47 min 19 sec) 
Heartbeat CPU 0 instructions: 21000001 cycles: 13260321 heartbeat IPC: 1.43037 cumulative IPC: 1.35779 (Simulation time: 0 hr 49 min 34 sec) 
Heartbeat CPU 0 instructions: 22000000 cycles: 13951013 heartbeat IPC: 1.44782 cumulative IPC: 1.36487 (Simulation time: 0 hr 51 min 45 sec) 
Heartbeat CPU 0 instructions: 23000001 cycles: 14640773 heartbeat IPC: 1.44978 cumulative IPC: 1.37104 (Simulation time: 0 hr 54 min 1 sec) 
Heartbeat CPU 0 instructions: 24000000 cycles: 15371404 heartbeat IPC: 1.36868 cumulative IPC: 1.37087 (Simulation time: 0 hr 56 min 5 sec) 
Heartbeat CPU 0 instructions: 25000000 cycles: 16184234 heartbeat IPC: 1.23027 cumulative IPC: 1.36051 (Simulation time: 0 hr 58 min 17 sec) 
Heartbeat CPU 0 instructions: 26000000 cycles: 16984096 heartbeat IPC: 1.25022 cumulative IPC: 1.35305 (Simulation time: 1 hr 0 min 36 sec) 
Heartbeat CPU 0 instructions: 27000002 cycles: 17669970 heartbeat IPC: 1.458 cumulative IPC: 1.3588 (Simulation time: 1 hr 2 min 46 sec) 
Heartbeat CPU 0 instructions: 28000000 cycles: 18358662 heartbeat IPC: 1.45203 cumulative IPC: 1.36367 (Simulation time: 1 hr 5 min 2 sec) 
Heartbeat CPU 0 instructions: 29000003 cycles: 19047197 heartbeat IPC: 1.45236 cumulative IPC: 1.36806 (Simulation time: 1 hr 7 min 16 sec) 
Heartbeat CPU 0 instructions: 30000002 cycles: 19806497 heartbeat IPC: 1.317 cumulative IPC: 1.36542 (Simulation time: 1 hr 9 min 28 sec) 
Heartbeat CPU 0 instructions: 31000001 cycles: 20622172 heartbeat IPC: 1.22598 cumulative IPC: 1.35806 (Simulation time: 1 hr 11 min 46 sec) 
Heartbeat CPU 0 instructions: 32000000 cycles: 21391288 heartbeat IPC: 1.30019 cumulative IPC: 1.35532 (Simulation time: 1 hr 13 min 56 sec) 
Heartbeat CPU 0 instructions: 33000000 cycles: 22075429 heartbeat IPC: 1.46169 cumulative IPC: 1.35962 (Simulation time: 1 hr 16 min 9 sec) 
Heartbeat CPU 0 instructions: 34000000 cycles: 22769572 heartbeat IPC: 1.44063 cumulative IPC: 1.36281 (Simulation time: 1 hr 18 min 34 sec) 
Heartbeat CPU 0 instructions: 35000002 cycles: 23455935 heartbeat IPC: 1.45696 cumulative IPC: 1.36634 (Simulation time: 1 hr 20 min 49 sec) 
Heartbeat CPU 0 instructions: 36000000 cycles: 24243294 heartbeat IPC: 1.27007 cumulative IPC: 1.36237 (Simulation time: 1 hr 23 min 5 sec) 
Heartbeat CPU 0 instructions: 37000003 cycles: 25058268 heartbeat IPC: 1.22704 cumulative IPC: 1.35683 (Simulation time: 1 hr 25 min 20 sec) 
Heartbeat CPU 0 instructions: 38000001 cycles: 25800304 heartbeat IPC: 1.34764 cumulative IPC: 1.3565 (Simulation time: 1 hr 27 min 43 sec) 
Heartbeat CPU 0 instructions: 39000002 cycles: 26485467 heartbeat IPC: 1.45951 cumulative IPC: 1.35981 (Simulation time: 1 hr 30 min 0 sec) 
Heartbeat CPU 0 instructions: 40000000 cycles: 27179396 heartbeat IPC: 1.44107 cumulative IPC: 1.36237 (Simulation time: 1 hr 32 min 14 sec) 
Heartbeat CPU 0 instructions: 41000001 cycles: 27862114 heartbeat IPC: 1.46474 cumulative IPC: 1.36545 (Simulation time: 1 hr 34 min 34 sec) 
Heartbeat CPU 0 instructions: 42000001 cycles: 28682659 heartbeat IPC: 1.2187 cumulative IPC: 1.36033 (Simulation time: 1 hr 36 min 43 sec) 
Heartbeat CPU 0 instructions: 43000000 cycles: 29494259 heartbeat IPC: 1.23213 cumulative IPC: 1.35605 (Simulation time: 1 hr 39 min 3 sec) 
Heartbeat CPU 0 instructions: 44000000 cycles: 30205190 heartbeat IPC: 1.40661 cumulative IPC: 1.35749 (Simulation time: 1 hr 41 min 16 sec) 
Heartbeat CPU 0 instructions: 45000002 cycles: 30895367 heartbeat IPC: 1.44891 cumulative IPC: 1.35994 (Simulation time: 1 hr 43 min 30 sec) 
Heartbeat CPU 0 instructions: 46000002 cycles: 31585080 heartbeat IPC: 1.44988 cumulative IPC: 1.36229 (Simulation time: 1 hr 45 min 37 sec) 
Heartbeat CPU 0 instructions: 47000001 cycles: 32302448 heartbeat IPC: 1.39398 cumulative IPC: 1.36313 (Simulation time: 1 hr 47 min 47 sec) 
Heartbeat CPU 0 instructions: 48000000 cycles: 33115314 heartbeat IPC: 1.23021 cumulative IPC: 1.35926 (Simulation time: 1 hr 50 min 4 sec) 
Heartbeat CPU 0 instructions: 49000003 cycles: 33922236 heartbeat IPC: 1.23928 cumulative IPC: 1.35589 (Simulation time: 1 hr 52 min 15 sec) 
Heartbeat CPU 0 instructions: 50000001 cycles: 34608307 heartbeat IPC: 1.45757 cumulative IPC: 1.35826 (Simulation time: 1 hr 54 min 33 sec) 
Heartbeat CPU 0 instructions: 51000002 cycles: 35296379 heartbeat IPC: 1.45334 cumulative IPC: 1.36043 (Simulation time: 1 hr 56 min 56 sec) 
Heartbeat CPU 0 instructions: 52000000 cycles: 35987932 heartbeat IPC: 1.44602 cumulative IPC: 1.36235 (Simulation time: 1 hr 59 min 5 sec) 
Heartbeat CPU 0 instructions: 53000000 cycles: 36734683 heartbeat IPC: 1.33913 cumulative IPC: 1.3618 (Simulation time: 2 hr 1 min 13 sec) 
Heartbeat CPU 0 instructions: 54000002 cycles: 37546874 heartbeat IPC: 1.23124 cumulative IPC: 1.35853 (Simulation time: 2 hr 3 min 29 sec) 
Heartbeat CPU 0 instructions: 55000001 cycles: 38324642 heartbeat IPC: 1.28573 cumulative IPC: 1.35682 (Simulation time: 2 hr 5 min 33 sec) 
Heartbeat CPU 0 instructions: 56000000 cycles: 39012192 heartbeat IPC: 1.45444 cumulative IPC: 1.35881 (Simulation time: 2 hr 7 min 47 sec) 
Heartbeat CPU 0 instructions: 57000000 cycles: 39702554 heartbeat IPC: 1.44852 cumulative IPC: 1.3606 (Simulation time: 2 hr 9 min 53 sec) 
Heartbeat CPU 0 instructions: 58000000 cycles: 40393260 heartbeat IPC: 1.44779 cumulative IPC: 1.36231 (Simulation time: 2 hr 12 min 2 sec) 
Heartbeat CPU 0 instructions: 59000003 cycles: 41170575 heartbeat IPC: 1.28648 cumulative IPC: 1.36067 (Simulation time: 2 hr 14 min 17 sec) 
Heartbeat CPU 0 instructions: 60000000 cycles: 41984174 heartbeat IPC: 1.2291 cumulative IPC: 1.35776 (Simulation time: 2 hr 16 min 38 sec) 
Heartbeat CPU 0 instructions: 61000000 cycles: 42733191 heartbeat IPC: 1.33508 cumulative IPC: 1.35731 (Simulation time: 2 hr 18 min 56 sec) 
Heartbeat CPU 0 instructions: 62000002 cycles: 43418193 heartbeat IPC: 1.45985 cumulative IPC: 1.35915 (Simulation time: 2 hr 21 min 1 sec) 
Heartbeat CPU 0 instructions: 63000003 cycles: 44108752 heartbeat IPC: 1.4481 cumulative IPC: 1.36073 (Simulation time: 2 hr 23 min 13 sec) 
Heartbeat CPU 0 instructions: 64000000 cycles: 44792267 heartbeat IPC: 1.46302 cumulative IPC: 1.36249 (Simulation time: 2 hr 25 min 30 sec) 
Heartbeat CPU 0 instructions: 65000003 cycles: 45599708 heartbeat IPC: 1.23848 cumulative IPC: 1.36001 (Simulation time: 2 hr 27 min 47 sec) 
Heartbeat CPU 0 instructions: 66000003 cycles: 46412585 heartbeat IPC: 1.2302 cumulative IPC: 1.35746 (Simulation time: 2 hr 29 min 58 sec) 
Heartbeat CPU 0 instructions: 67000002 cycles: 47138328 heartbeat IPC: 1.3779 cumulative IPC: 1.35781 (Simulation time: 2 hr 32 min 16 sec) 
Heartbeat CPU 0 instructions: 68000000 cycles: 47835024 heartbeat IPC: 1.43534 cumulative IPC: 1.35908 (Simulation time: 2 hr 34 min 25 sec) 
Heartbeat CPU 0 instructions: 69000000 cycles: 48533838 heartbeat IPC: 1.431 cumulative IPC: 1.36023 (Simulation time: 2 hr 36 min 31 sec) 
Heartbeat CPU 0 instructions: 70000001 cycles: 49255623 heartbeat IPC: 1.38546 cumulative IPC: 1.36065 (Simulation time: 2 hr 38 min 45 sec) 
Heartbeat CPU 0 instructions: 71000001 cycles: 50064053 heartbeat IPC: 1.23697 cumulative IPC: 1.35842 (Simulation time: 2 hr 41 min 10 sec) 
Heartbeat CPU 0 instructions: 72000000 cycles: 50875481 heartbeat IPC: 1.23239 cumulative IPC: 1.35618 (Simulation time: 2 hr 43 min 31 sec) 
Heartbeat CPU 0 instructions: 73000003 cycles: 51568355 heartbeat IPC: 1.44327 cumulative IPC: 1.35748 (Simulation time: 2 hr 45 min 44 sec) 
Heartbeat CPU 0 instructions: 74000001 cycles: 52257223 heartbeat IPC: 1.45165 cumulative IPC: 1.35886 (Simulation time: 2 hr 47 min 53 sec) 
Heartbeat CPU 0 instructions: 75000003 cycles: 52946315 heartbeat IPC: 1.45119 cumulative IPC: 1.36019 (Simulation time: 2 hr 50 min 1 sec) 
Heartbeat CPU 0 instructions: 76000000 cycles: 53686746 heartbeat IPC: 1.35056 cumulative IPC: 1.36005 (Simulation time: 2 hr 52 min 21 sec) 
Heartbeat CPU 0 instructions: 77000001 cycles: 54499070 heartbeat IPC: 1.23104 cumulative IPC: 1.35792 (Simulation time: 2 hr 54 min 49 sec) 
Heartbeat CPU 0 instructions: 78000003 cycles: 55286401 heartbeat IPC: 1.27012 cumulative IPC: 1.35654 (Simulation time: 2 hr 57 min 6 sec) 
Heartbeat CPU 0 instructions: 79000001 cycles: 55976853 heartbeat IPC: 1.44832 cumulative IPC: 1.35779 (Simulation time: 2 hr 59 min 24 sec) 
Heartbeat CPU 0 instructions: 80000000 cycles: 56669367 heartbeat IPC: 1.44401 cumulative IPC: 1.35895 (Simulation time: 3 hr 1 min 34 sec) 
Heartbeat CPU 0 instructions: 81000000 cycles: 57362042 heartbeat IPC: 1.44368 cumulative IPC: 1.36007 (Simulation time: 3 hr 3 min 57 sec) 
Heartbeat CPU 0 instructions: 82000002 cycles: 58131360 heartbeat IPC: 1.29986 cumulative IPC: 1.3592 (Simulation time: 3 hr 6 min 28 sec) 
Heartbeat CPU 0 instructions: 83000001 cycles: 58942439 heartbeat IPC: 1.23292 cumulative IPC: 1.35729 (Simulation time: 3 hr 8 min 52 sec) 
Heartbeat CPU 0 instructions: 84000000 cycles: 59699404 heartbeat IPC: 1.32106 cumulative IPC: 1.35679 (Simulation time: 3 hr 11 min 2 sec) 
Heartbeat CPU 0 instructions: 85000001 cycles: 60388490 heartbeat IPC: 1.4512 cumulative IPC: 1.35797 (Simulation time: 3 hr 13 min 22 sec) 
Heartbeat CPU 0 instructions: 86000002 cycles: 61083260 heartbeat IPC: 1.43933 cumulative IPC: 1.35898 (Simulation time: 3 hr 15 min 35 sec) 
Heartbeat CPU 0 instructions: 87000000 cycles: 61776088 heartbeat IPC: 1.44336 cumulative IPC: 1.36001 (Simulation time: 3 hr 17 min 50 sec) 
Heartbeat CPU 0 instructions: 88000000 cycles: 62573623 heartbeat IPC: 1.25386 cumulative IPC: 1.35854 (Simulation time: 3 hr 20 min 11 sec) 
Heartbeat CPU 0 instructions: 89000000 cycles: 63386419 heartbeat IPC: 1.23032 cumulative IPC: 1.35675 (Simulation time: 3 hr 22 min 33 sec) 
Heartbeat CPU 0 instructions: 90000002 cycles: 64120399 heartbeat IPC: 1.36244 cumulative IPC: 1.35682 (Simulation time: 3 hr 25 min 3 sec) 
Heartbeat CPU 0 instructions: 91000002 cycles: 64814204 heartbeat IPC: 1.44133 cumulative IPC: 1.3578 (Simulation time: 3 hr 27 min 9 sec) 
Heartbeat CPU 0 instructions: 92000000 cycles: 65516246 heartbeat IPC: 1.42441 cumulative IPC: 1.35858 (Simulation time: 3 hr 29 min 19 sec) 
Heartbeat CPU 0 instructions: 93000001 cycles: 66213131 heartbeat IPC: 1.43496 cumulative IPC: 1.35945 (Simulation time: 3 hr 31 min 31 sec) 
Heartbeat CPU 0 instructions: 94000000 cycles: 67038561 heartbeat IPC: 1.21149 cumulative IPC: 1.35747 (Simulation time: 3 hr 33 min 47 sec) 
Heartbeat CPU 0 instructions: 95000003 cycles: 67851071 heartbeat IPC: 1.23076 cumulative IPC: 1.35583 (Simulation time: 3 hr 36 min 1 sec) 
Heartbeat CPU 0 instructions: 96000000 cycles: 68558845 heartbeat IPC: 1.41288 cumulative IPC: 1.35647 (Simulation time: 3 hr 38 min 7 sec) 
Heartbeat CPU 0 instructions: 97000001 cycles: 69254499 heartbeat IPC: 1.4375 cumulative IPC: 1.35735 (Simulation time: 3 hr 40 min 25 sec) 
Heartbeat CPU 0 instructions: 98000000 cycles: 69953265 heartbeat IPC: 1.43109 cumulative IPC: 1.35814 (Simulation time: 3 hr 42 min 40 sec) 
Heartbeat CPU 0 instructions: 99000001 cycles: 70683732 heartbeat IPC: 1.36899 cumulative IPC: 1.35826 (Simulation time: 3 hr 44 min 53 sec) 
Heartbeat CPU 0 instructions: 100000000 cycles: 71495924 heartbeat IPC: 1.23123 cumulative IPC: 1.35671 (Simulation time: 3 hr 47 min 11 sec) 
Heartbeat CPU 0 instructions: 101000001 cycles: 72299601 heartbeat IPC: 1.24428 cumulative IPC: 1.35536 (Simulation time: 3 hr 49 min 20 sec) 
Heartbeat CPU 0 instructions: 102000003 cycles: 72996314 heartbeat IPC: 1.43531 cumulative IPC: 1.35618 (Simulation time: 3 hr 51 min 30 sec) 
Heartbeat CPU 0 instructions: 103000003 cycles: 73699510 heartbeat IPC: 1.42208 cumulative IPC: 1.35686 (Simulation time: 3 hr 53 min 42 sec) 
Heartbeat CPU 0 instructions: 104000000 cycles: 74404127 heartbeat IPC: 1.41921 cumulative IPC: 1.3575 (Simulation time: 3 hr 56 min 6 sec) 
Heartbeat CPU 0 instructions: 105000001 cycles: 75171188 heartbeat IPC: 1.30368 cumulative IPC: 1.35691 (Simulation time: 3 hr 58 min 21 sec) 
Heartbeat CPU 0 instructions: 106000002 cycles: 75978760 heartbeat IPC: 1.23828 cumulative IPC: 1.35555 (Simulation time: 4 hr 0 min 26 sec) 
Heartbeat CPU 0 instructions: 107000003 cycles: 76755779 heartbeat IPC: 1.28697 cumulative IPC: 1.35481 (Simulation time: 4 hr 2 min 44 sec) 
Heartbeat CPU 0 instructions: 108000000 cycles: 77455045 heartbeat IPC: 1.43007 cumulative IPC: 1.35554 (Simulation time: 4 hr 4 min 53 sec) 
Heartbeat CPU 0 instructions: 109000001 cycles: 78159654 heartbeat IPC: 1.41923 cumulative IPC: 1.35615 (Simulation time: 4 hr 7 min 1 sec) 
Heartbeat CPU 0 instructions: 110000000 cycles: 78865448 heartbeat IPC: 1.41684 cumulative IPC: 1.35673 (Simulation time: 4 hr 9 min 10 sec) 
Finished CPU 0 instructions: 100000002 cycles: 73706506 cummulative IPC: 1.35673 (Simulation time: 4 hr 9 min 10 sec) 

ChampSim completed all CPUs

Region of Interest Statistics

CPU 0 cummulative IPC: 1.35673 instructions: 100000002 cycles: 73706506
LLC TOTAL     ACCESS:     631932  HIT:     296194  MISS:     335738
LLC LOAD      ACCESS:      36932  HIT:      22620  MISS:      14312
LLC RFO       ACCESS:     152070  HIT:      75957  MISS:      76113
LLC PREFETCH  ACCESS:     287122  HIT:      92498  MISS:     194624
LLC WRITEBACK ACCESS:     155808  HIT:     105119  MISS:      50689
Insertion Distribution: 
	LOAD 2552 0 4414 8945 
	RFO 204 0 16340 69823 
	PREF 0 17864 65435 133736 
	WRITEBACK 0 0 0 52361 
Total Prefetch Downgrades: 21116
