
*** ChampSim Multicore Out-of-Order Simulator ***

Warmup Instructions: 10000000
Simulation Instructions: 100000000
Configuration: 2
Number of CPUs: 1
LLC sets: 2048
LLC ways: 16
Off-chip DRAM Channels: 1 Width: 64-bit Data Rate: 1600 MT/s

CPU 0 runs /datasets/cs240c-wi22-a00-public/data/Assignment2-gz/omnetpp_17B.trace.gz
CPU 0 L1D next line prefetcher
CPU 0 L2C IP-based stride prefetcher
Initialize SRRIP state
Heartbeat CPU 0 instructions: 1000000 cycles: 559582 heartbeat IPC: 1.78705 cumulative IPC: 1.78705 (Simulation time: 0 hr 2 min 18 sec) 
Heartbeat CPU 0 instructions: 2000002 cycles: 1133732 heartbeat IPC: 1.74171 cumulative IPC: 1.76409 (Simulation time: 0 hr 4 min 44 sec) 
Heartbeat CPU 0 instructions: 3000001 cycles: 1769047 heartbeat IPC: 1.57402 cumulative IPC: 1.69583 (Simulation time: 0 hr 6 min 50 sec) 
Heartbeat CPU 0 instructions: 4000000 cycles: 2333907 heartbeat IPC: 1.77035 cumulative IPC: 1.71386 (Simulation time: 0 hr 9 min 4 sec) 
Heartbeat CPU 0 instructions: 5000002 cycles: 2892842 heartbeat IPC: 1.78912 cumulative IPC: 1.7284 (Simulation time: 0 hr 11 min 18 sec) 
Heartbeat CPU 0 instructions: 6000000 cycles: 3471279 heartbeat IPC: 1.72879 cumulative IPC: 1.72847 (Simulation time: 0 hr 13 min 37 sec) 
Heartbeat CPU 0 instructions: 7000000 cycles: 4035613 heartbeat IPC: 1.772 cumulative IPC: 1.73456 (Simulation time: 0 hr 15 min 54 sec) 
Heartbeat CPU 0 instructions: 8000000 cycles: 4697347 heartbeat IPC: 1.51118 cumulative IPC: 1.70309 (Simulation time: 0 hr 17 min 50 sec) 
Heartbeat CPU 0 instructions: 9000000 cycles: 5359152 heartbeat IPC: 1.51102 cumulative IPC: 1.67937 (Simulation time: 0 hr 19 min 43 sec) 
Heartbeat CPU 0 instructions: 10000001 cycles: 6020721 heartbeat IPC: 1.51156 cumulative IPC: 1.66093 (Simulation time: 0 hr 21 min 37 sec) 

Warmup complete CPU 0 instructions: 10000001 cycles: 6020721 (Simulation time: 0 hr 21 min 37 sec) 

Heartbeat CPU 0 instructions: 11000001 cycles: 7065517 heartbeat IPC: 0.957125 cumulative IPC: 0.957125 (Simulation time: 0 hr 23 min 36 sec) 
Heartbeat CPU 0 instructions: 12000000 cycles: 8110080 heartbeat IPC: 0.957337 cumulative IPC: 0.957231 (Simulation time: 0 hr 25 min 36 sec) 
Heartbeat CPU 0 instructions: 13000000 cycles: 9179992 heartbeat IPC: 0.934656 cumulative IPC: 0.949586 (Simulation time: 0 hr 27 min 40 sec) 
Heartbeat CPU 0 instructions: 14000001 cycles: 10224243 heartbeat IPC: 0.957625 cumulative IPC: 0.951583 (Simulation time: 0 hr 29 min 42 sec) 
Heartbeat CPU 0 instructions: 15000000 cycles: 11268451 heartbeat IPC: 0.957663 cumulative IPC: 0.952793 (Simulation time: 0 hr 31 min 43 sec) 
Heartbeat CPU 0 instructions: 16000000 cycles: 12312488 heartbeat IPC: 0.95782 cumulative IPC: 0.953627 (Simulation time: 0 hr 33 min 40 sec) 
Heartbeat CPU 0 instructions: 17000000 cycles: 13358025 heartbeat IPC: 0.956446 cumulative IPC: 0.954029 (Simulation time: 0 hr 35 min 44 sec) 
Heartbeat CPU 0 instructions: 18000001 cycles: 14399369 heartbeat IPC: 0.960298 cumulative IPC: 0.954808 (Simulation time: 0 hr 37 min 40 sec) 
Heartbeat CPU 0 instructions: 19000002 cycles: 15434179 heartbeat IPC: 0.966362 cumulative IPC: 0.956078 (Simulation time: 0 hr 39 min 42 sec) 
Heartbeat CPU 0 instructions: 20000000 cycles: 18714447 heartbeat IPC: 0.304853 cumulative IPC: 0.787791 (Simulation time: 0 hr 42 min 13 sec) 
Heartbeat CPU 0 instructions: 21000000 cycles: 21159306 heartbeat IPC: 0.409022 cumulative IPC: 0.72662 (Simulation time: 0 hr 44 min 37 sec) 
Heartbeat CPU 0 instructions: 22000002 cycles: 22979966 heartbeat IPC: 0.549252 cumulative IPC: 0.707579 (Simulation time: 0 hr 46 min 48 sec) 
Heartbeat CPU 0 instructions: 23000000 cycles: 26199126 heartbeat IPC: 0.310639 cumulative IPC: 0.644253 (Simulation time: 0 hr 49 min 25 sec) 
Heartbeat CPU 0 instructions: 24000000 cycles: 29415056 heartbeat IPC: 0.310952 cumulative IPC: 0.598435 (Simulation time: 0 hr 51 min 52 sec) 
Heartbeat CPU 0 instructions: 25000001 cycles: 31999025 heartbeat IPC: 0.387002 cumulative IPC: 0.577405 (Simulation time: 0 hr 54 min 5 sec) 
Heartbeat CPU 0 instructions: 26000001 cycles: 33662442 heartbeat IPC: 0.601172 cumulative IPC: 0.578835 (Simulation time: 0 hr 56 min 10 sec) 
Heartbeat CPU 0 instructions: 27000000 cycles: 36886013 heartbeat IPC: 0.310215 cumulative IPC: 0.55078 (Simulation time: 0 hr 58 min 36 sec) 
Heartbeat CPU 0 instructions: 28000000 cycles: 40111311 heartbeat IPC: 0.310049 cumulative IPC: 0.528005 (Simulation time: 1 hr 1 min 14 sec) 
Heartbeat CPU 0 instructions: 29000000 cycles: 42877595 heartbeat IPC: 0.361496 cumulative IPC: 0.515508 (Simulation time: 1 hr 3 min 35 sec) 
Heartbeat CPU 0 instructions: 30000000 cycles: 44368835 heartbeat IPC: 0.670583 cumulative IPC: 0.521538 (Simulation time: 1 hr 5 min 33 sec) 
Heartbeat CPU 0 instructions: 31000000 cycles: 47581217 heartbeat IPC: 0.311295 cumulative IPC: 0.505287 (Simulation time: 1 hr 7 min 55 sec) 
Heartbeat CPU 0 instructions: 32000000 cycles: 50789652 heartbeat IPC: 0.311678 cumulative IPC: 0.491412 (Simulation time: 1 hr 10 min 21 sec) 
Heartbeat CPU 0 instructions: 33000001 cycles: 53732864 heartbeat IPC: 0.339765 cumulative IPC: 0.482058 (Simulation time: 1 hr 12 min 38 sec) 
Heartbeat CPU 0 instructions: 34000000 cycles: 55030531 heartbeat IPC: 0.770613 cumulative IPC: 0.489698 (Simulation time: 1 hr 14 min 39 sec) 
Heartbeat CPU 0 instructions: 35000003 cycles: 58238555 heartbeat IPC: 0.311719 cumulative IPC: 0.478764 (Simulation time: 1 hr 17 min 15 sec) 
Heartbeat CPU 0 instructions: 36000000 cycles: 61489467 heartbeat IPC: 0.307605 cumulative IPC: 0.468732 (Simulation time: 1 hr 19 min 35 sec) 
Heartbeat CPU 0 instructions: 37000001 cycles: 64331368 heartbeat IPC: 0.351877 cumulative IPC: 0.463037 (Simulation time: 1 hr 22 min 0 sec) 
Heartbeat CPU 0 instructions: 38000000 cycles: 65743143 heartbeat IPC: 0.708327 cumulative IPC: 0.468836 (Simulation time: 1 hr 23 min 57 sec) 
Heartbeat CPU 0 instructions: 39000000 cycles: 68954038 heartbeat IPC: 0.31144 cumulative IPC: 0.460805 (Simulation time: 1 hr 26 min 22 sec) 
Heartbeat CPU 0 instructions: 40000000 cycles: 72172803 heartbeat IPC: 0.310678 cumulative IPC: 0.4535 (Simulation time: 1 hr 28 min 49 sec) 
Heartbeat CPU 0 instructions: 41000002 cycles: 74916784 heartbeat IPC: 0.364435 cumulative IPC: 0.449953 (Simulation time: 1 hr 31 min 1 sec) 
Heartbeat CPU 0 instructions: 42000000 cycles: 76425402 heartbeat IPC: 0.662857 cumulative IPC: 0.454515 (Simulation time: 1 hr 33 min 12 sec) 
Heartbeat CPU 0 instructions: 43000003 cycles: 81724201 heartbeat IPC: 0.188723 cumulative IPC: 0.435911 (Simulation time: 1 hr 36 min 5 sec) 
Heartbeat CPU 0 instructions: 44000000 cycles: 82770750 heartbeat IPC: 0.955519 cumulative IPC: 0.442997 (Simulation time: 1 hr 38 min 9 sec) 
Heartbeat CPU 0 instructions: 45000003 cycles: 83813530 heartbeat IPC: 0.958978 cumulative IPC: 0.449913 (Simulation time: 1 hr 40 min 16 sec) 
Heartbeat CPU 0 instructions: 46000001 cycles: 84856597 heartbeat IPC: 0.958709 cumulative IPC: 0.456645 (Simulation time: 1 hr 42 min 42 sec) 
Heartbeat CPU 0 instructions: 47000001 cycles: 85901132 heartbeat IPC: 0.957364 cumulative IPC: 0.463192 (Simulation time: 1 hr 44 min 57 sec) 
Heartbeat CPU 0 instructions: 48000000 cycles: 86944310 heartbeat IPC: 0.958608 cumulative IPC: 0.469579 (Simulation time: 1 hr 47 min 7 sec) 
Heartbeat CPU 0 instructions: 49000000 cycles: 87986116 heartbeat IPC: 0.959872 cumulative IPC: 0.475811 (Simulation time: 1 hr 49 min 14 sec) 
Heartbeat CPU 0 instructions: 50000000 cycles: 89028904 heartbeat IPC: 0.958968 cumulative IPC: 0.48188 (Simulation time: 1 hr 51 min 25 sec) 
Heartbeat CPU 0 instructions: 51000002 cycles: 90071792 heartbeat IPC: 0.958878 cumulative IPC: 0.487799 (Simulation time: 1 hr 53 min 41 sec) 
Heartbeat CPU 0 instructions: 52000000 cycles: 91116031 heartbeat IPC: 0.957633 cumulative IPC: 0.493564 (Simulation time: 1 hr 55 min 47 sec) 
Heartbeat CPU 0 instructions: 53000001 cycles: 92158798 heartbeat IPC: 0.958988 cumulative IPC: 0.499199 (Simulation time: 1 hr 57 min 58 sec) 
Heartbeat CPU 0 instructions: 54000002 cycles: 93226943 heartbeat IPC: 0.936203 cumulative IPC: 0.504551 (Simulation time: 2 hr 0 min 6 sec) 
Heartbeat CPU 0 instructions: 55000003 cycles: 94267218 heartbeat IPC: 0.961285 cumulative IPC: 0.509935 (Simulation time: 2 hr 1 min 57 sec) 
Heartbeat CPU 0 instructions: 56000000 cycles: 96486860 heartbeat IPC: 0.450522 cumulative IPC: 0.508478 (Simulation time: 2 hr 4 min 20 sec) 
Heartbeat CPU 0 instructions: 57000003 cycles: 98512803 heartbeat IPC: 0.493599 cumulative IPC: 0.508152 (Simulation time: 2 hr 6 min 52 sec) 
Heartbeat CPU 0 instructions: 58000000 cycles: 101744853 heartbeat IPC: 0.3094 cumulative IPC: 0.501441 (Simulation time: 2 hr 9 min 33 sec) 
Heartbeat CPU 0 instructions: 59000003 cycles: 104970683 heartbeat IPC: 0.309999 cumulative IPC: 0.4952 (Simulation time: 2 hr 11 min 57 sec) 
Heartbeat CPU 0 instructions: 60000000 cycles: 107340562 heartbeat IPC: 0.421961 cumulative IPC: 0.493487 (Simulation time: 2 hr 14 min 7 sec) 
Heartbeat CPU 0 instructions: 61000001 cycles: 109214242 heartbeat IPC: 0.53371 cumulative IPC: 0.494217 (Simulation time: 2 hr 16 min 11 sec) 
Heartbeat CPU 0 instructions: 62000001 cycles: 112423254 heartbeat IPC: 0.311622 cumulative IPC: 0.48871 (Simulation time: 2 hr 18 min 32 sec) 
Heartbeat CPU 0 instructions: 63000000 cycles: 115641919 heartbeat IPC: 0.310688 cumulative IPC: 0.483483 (Simulation time: 2 hr 21 min 9 sec) 
Heartbeat CPU 0 instructions: 64000000 cycles: 118170811 heartbeat IPC: 0.39543 cumulative IPC: 0.481498 (Simulation time: 2 hr 23 min 26 sec) 
Heartbeat CPU 0 instructions: 65000000 cycles: 119874157 heartbeat IPC: 0.58708 cumulative IPC: 0.483077 (Simulation time: 2 hr 25 min 51 sec) 
Heartbeat CPU 0 instructions: 66000000 cycles: 123082653 heartbeat IPC: 0.311673 cumulative IPC: 0.478379 (Simulation time: 2 hr 28 min 15 sec) 
Heartbeat CPU 0 instructions: 67000001 cycles: 126300984 heartbeat IPC: 0.31072 cumulative IPC: 0.473893 (Simulation time: 2 hr 30 min 39 sec) 
Heartbeat CPU 0 instructions: 68000000 cycles: 129019709 heartbeat IPC: 0.367819 cumulative IPC: 0.471549 (Simulation time: 2 hr 32 min 50 sec) 
Heartbeat CPU 0 instructions: 69000001 cycles: 130544687 heartbeat IPC: 0.655748 cumulative IPC: 0.473804 (Simulation time: 2 hr 34 min 58 sec) 
Heartbeat CPU 0 instructions: 70000001 cycles: 133752315 heartbeat IPC: 0.311757 cumulative IPC: 0.469735 (Simulation time: 2 hr 37 min 15 sec) 
Heartbeat CPU 0 instructions: 71000001 cycles: 136974442 heartbeat IPC: 0.310354 cumulative IPC: 0.465813 (Simulation time: 2 hr 39 min 40 sec) 
Heartbeat CPU 0 instructions: 72000000 cycles: 139699252 heartbeat IPC: 0.366998 cumulative IPC: 0.463799 (Simulation time: 2 hr 42 min 0 sec) 
Heartbeat CPU 0 instructions: 73000000 cycles: 141228814 heartbeat IPC: 0.653782 cumulative IPC: 0.465948 (Simulation time: 2 hr 44 min 7 sec) 
Heartbeat CPU 0 instructions: 74000003 cycles: 144453976 heartbeat IPC: 0.310063 cumulative IPC: 0.462317 (Simulation time: 2 hr 46 min 31 sec) 
Heartbeat CPU 0 instructions: 75000001 cycles: 147673867 heartbeat IPC: 0.310569 cumulative IPC: 0.458867 (Simulation time: 2 hr 48 min 54 sec) 
Heartbeat CPU 0 instructions: 76000000 cycles: 150289599 heartbeat IPC: 0.382302 cumulative IPC: 0.457479 (Simulation time: 2 hr 51 min 8 sec) 
Heartbeat CPU 0 instructions: 77000001 cycles: 151918096 heartbeat IPC: 0.614064 cumulative IPC: 0.459227 (Simulation time: 2 hr 53 min 11 sec) 
Heartbeat CPU 0 instructions: 78000000 cycles: 155124386 heartbeat IPC: 0.311887 cumulative IPC: 0.456059 (Simulation time: 2 hr 55 min 35 sec) 
Heartbeat CPU 0 instructions: 79000000 cycles: 158506191 heartbeat IPC: 0.2957 cumulative IPC: 0.452502 (Simulation time: 2 hr 58 min 10 sec) 
Heartbeat CPU 0 instructions: 80000000 cycles: 160326833 heartbeat IPC: 0.549257 cumulative IPC: 0.453644 (Simulation time: 3 hr 0 min 15 sec) 
Heartbeat CPU 0 instructions: 81000001 cycles: 162745917 heartbeat IPC: 0.41338 cumulative IPC: 0.453022 (Simulation time: 3 hr 2 min 21 sec) 
Heartbeat CPU 0 instructions: 82000000 cycles: 165962364 heartbeat IPC: 0.310902 cumulative IPC: 0.450164 (Simulation time: 3 hr 4 min 46 sec) 
Heartbeat CPU 0 instructions: 83000000 cycles: 169178893 heartbeat IPC: 0.310894 cumulative IPC: 0.447419 (Simulation time: 3 hr 7 min 6 sec) 
Heartbeat CPU 0 instructions: 84000000 cycles: 170967693 heartbeat IPC: 0.559034 cumulative IPC: 0.448629 (Simulation time: 3 hr 9 min 14 sec) 
Heartbeat CPU 0 instructions: 85000003 cycles: 173411982 heartbeat IPC: 0.409118 cumulative IPC: 0.448052 (Simulation time: 3 hr 11 min 42 sec) 
Heartbeat CPU 0 instructions: 86000001 cycles: 176633489 heartbeat IPC: 0.310413 cumulative IPC: 0.445453 (Simulation time: 3 hr 14 min 8 sec) 
Heartbeat CPU 0 instructions: 87000000 cycles: 179845530 heartbeat IPC: 0.311328 cumulative IPC: 0.442975 (Simulation time: 3 hr 16 min 30 sec) 
Heartbeat CPU 0 instructions: 88000000 cycles: 181490927 heartbeat IPC: 0.607756 cumulative IPC: 0.44452 (Simulation time: 3 hr 18 min 32 sec) 
Heartbeat CPU 0 instructions: 89000000 cycles: 186143831 heartbeat IPC: 0.21492 cumulative IPC: 0.438589 (Simulation time: 3 hr 21 min 9 sec) 
Heartbeat CPU 0 instructions: 90000002 cycles: 187187275 heartbeat IPC: 0.958367 cumulative IPC: 0.441583 (Simulation time: 3 hr 23 min 5 sec) 
Heartbeat CPU 0 instructions: 91000001 cycles: 188231668 heartbeat IPC: 0.957493 cumulative IPC: 0.44454 (Simulation time: 3 hr 25 min 7 sec) 
Heartbeat CPU 0 instructions: 92000000 cycles: 189275239 heartbeat IPC: 0.958247 cumulative IPC: 0.447465 (Simulation time: 3 hr 27 min 2 sec) 
Heartbeat CPU 0 instructions: 93000002 cycles: 190319504 heartbeat IPC: 0.957613 cumulative IPC: 0.450356 (Simulation time: 3 hr 28 min 55 sec) 
Heartbeat CPU 0 instructions: 94000001 cycles: 191363332 heartbeat IPC: 0.958011 cumulative IPC: 0.453215 (Simulation time: 3 hr 30 min 55 sec) 
Heartbeat CPU 0 instructions: 95000000 cycles: 192407596 heartbeat IPC: 0.957611 cumulative IPC: 0.456041 (Simulation time: 3 hr 32 min 55 sec) 
Heartbeat CPU 0 instructions: 96000000 cycles: 193452391 heartbeat IPC: 0.957126 cumulative IPC: 0.458834 (Simulation time: 3 hr 34 min 48 sec) 
Heartbeat CPU 0 instructions: 97000002 cycles: 194523243 heartbeat IPC: 0.933838 cumulative IPC: 0.461532 (Simulation time: 3 hr 36 min 39 sec) 
Heartbeat CPU 0 instructions: 98000000 cycles: 195569056 heartbeat IPC: 0.956192 cumulative IPC: 0.464262 (Simulation time: 3 hr 38 min 43 sec) 
Heartbeat CPU 0 instructions: 99000003 cycles: 196607483 heartbeat IPC: 0.962998 cumulative IPC: 0.466979 (Simulation time: 3 hr 40 min 47 sec) 
Heartbeat CPU 0 instructions: 100000000 cycles: 197643937 heartbeat IPC: 0.964825 cumulative IPC: 0.469672 (Simulation time: 3 hr 42 min 49 sec) 
Heartbeat CPU 0 instructions: 101000001 cycles: 198685027 heartbeat IPC: 0.960533 cumulative IPC: 0.472324 (Simulation time: 3 hr 44 min 37 sec) 
Heartbeat CPU 0 instructions: 102000001 cycles: 201862380 heartbeat IPC: 0.314727 cumulative IPC: 0.469767 (Simulation time: 3 hr 46 min 59 sec) 
Heartbeat CPU 0 instructions: 103000001 cycles: 203249223 heartbeat IPC: 0.721062 cumulative IPC: 0.471534 (Simulation time: 3 hr 49 min 0 sec) 
Heartbeat CPU 0 instructions: 104000000 cycles: 206151946 heartbeat IPC: 0.344504 cumulative IPC: 0.469692 (Simulation time: 3 hr 51 min 24 sec) 
Heartbeat CPU 0 instructions: 105000000 cycles: 209366072 heartbeat IPC: 0.311127 cumulative IPC: 0.467185 (Simulation time: 3 hr 53 min 57 sec) 
Heartbeat CPU 0 instructions: 106000000 cycles: 212532636 heartbeat IPC: 0.3158 cumulative IPC: 0.464864 (Simulation time: 3 hr 56 min 16 sec) 
Heartbeat CPU 0 instructions: 107000001 cycles: 214068068 heartbeat IPC: 0.651283 cumulative IPC: 0.46624 (Simulation time: 3 hr 58 min 13 sec) 
Heartbeat CPU 0 instructions: 108000000 cycles: 216832392 heartbeat IPC: 0.361752 cumulative IPC: 0.46487 (Simulation time: 4 hr 0 min 29 sec) 
Heartbeat CPU 0 instructions: 109000000 cycles: 220052550 heartbeat IPC: 0.310544 cumulative IPC: 0.462548 (Simulation time: 4 hr 2 min 53 sec) 
Heartbeat CPU 0 instructions: 110000000 cycles: 223254020 heartbeat IPC: 0.312357 cumulative IPC: 0.460335 (Simulation time: 4 hr 5 min 20 sec) 
Finished CPU 0 instructions: 100000003 cycles: 217233304 cummulative IPC: 0.460335 (Simulation time: 4 hr 5 min 20 sec) 

ChampSim completed all CPUs

Region of Interest Statistics

CPU 0 cummulative IPC: 0.460335 instructions: 100000003 cycles: 217233304
LLC TOTAL     ACCESS:    3282657  HIT:    1504557  MISS:    1778100
LLC LOAD      ACCESS:    1558148  HIT:    1321387  MISS:     236761
LLC RFO       ACCESS:       5220  HIT:       2475  MISS:       2745
LLC PREFETCH  ACCESS:    1702441  HIT:     172003  MISS:    1530438
LLC WRITEBACK ACCESS:      16848  HIT:       8692  MISS:       8156
Insertion Distribution: 
	LOAD 13213 0 88947 210466 
	RFO 0 0 1100 2007 
	PREF 0 27 212276 1486072 
	WRITEBACK 0 0 0 8394 
Total Prefetch Downgrades: 571
