
*** ChampSim Multicore Out-of-Order Simulator ***

Warmup Instructions: 10000000
Simulation Instructions: 100000000
Configuration: 2
Number of CPUs: 1
LLC sets: 2048
LLC ways: 16
Off-chip DRAM Channels: 1 Width: 64-bit Data Rate: 1600 MT/s

CPU 0 runs /datasets/cs240c-wi22-a00-public/data/Assignment2-gz/omnetpp_340B.trace.gz
CPU 0 L1D next line prefetcher
CPU 0 L2C IP-based stride prefetcher
Initialize SRRIP state
Heartbeat CPU 0 instructions: 1000001 cycles: 576944 heartbeat IPC: 1.73327 cumulative IPC: 1.73327 (Simulation time: 0 hr 2 min 54 sec) 
Heartbeat CPU 0 instructions: 2000000 cycles: 1160913 heartbeat IPC: 1.71242 cumulative IPC: 1.72278 (Simulation time: 0 hr 5 min 40 sec) 
Heartbeat CPU 0 instructions: 3000001 cycles: 1758198 heartbeat IPC: 1.67424 cumulative IPC: 1.70629 (Simulation time: 0 hr 8 min 38 sec) 
Heartbeat CPU 0 instructions: 4000000 cycles: 2379133 heartbeat IPC: 1.61047 cumulative IPC: 1.68128 (Simulation time: 0 hr 11 min 37 sec) 
Heartbeat CPU 0 instructions: 5000002 cycles: 2954552 heartbeat IPC: 1.73787 cumulative IPC: 1.6923 (Simulation time: 0 hr 14 min 16 sec) 
Heartbeat CPU 0 instructions: 6000003 cycles: 3556024 heartbeat IPC: 1.66259 cumulative IPC: 1.68728 (Simulation time: 0 hr 17 min 11 sec) 
Heartbeat CPU 0 instructions: 7000003 cycles: 4205478 heartbeat IPC: 1.53975 cumulative IPC: 1.6645 (Simulation time: 0 hr 20 min 29 sec) 
Heartbeat CPU 0 instructions: 8000000 cycles: 4800063 heartbeat IPC: 1.68184 cumulative IPC: 1.66664 (Simulation time: 0 hr 23 min 48 sec) 
Heartbeat CPU 0 instructions: 9000002 cycles: 5433489 heartbeat IPC: 1.57872 cumulative IPC: 1.65639 (Simulation time: 0 hr 27 min 11 sec) 
Heartbeat CPU 0 instructions: 10000002 cycles: 6028097 heartbeat IPC: 1.68178 cumulative IPC: 1.6589 (Simulation time: 0 hr 30 min 32 sec) 

Warmup complete CPU 0 instructions: 10000002 cycles: 6028097 (Simulation time: 0 hr 30 min 32 sec) 

Heartbeat CPU 0 instructions: 11000000 cycles: 9648728 heartbeat IPC: 0.276194 cumulative IPC: 0.276194 (Simulation time: 0 hr 34 min 29 sec) 
Heartbeat CPU 0 instructions: 12000000 cycles: 13149629 heartbeat IPC: 0.285641 cumulative IPC: 0.280838 (Simulation time: 0 hr 38 min 7 sec) 
Heartbeat CPU 0 instructions: 13000000 cycles: 16973642 heartbeat IPC: 0.261505 cumulative IPC: 0.274084 (Simulation time: 0 hr 41 min 55 sec) 
Heartbeat CPU 0 instructions: 14000001 cycles: 20812390 heartbeat IPC: 0.260502 cumulative IPC: 0.270557 (Simulation time: 0 hr 45 min 36 sec) 
Heartbeat CPU 0 instructions: 15000003 cycles: 24722239 heartbeat IPC: 0.255765 cumulative IPC: 0.267464 (Simulation time: 0 hr 49 min 33 sec) 
Heartbeat CPU 0 instructions: 16000000 cycles: 28863384 heartbeat IPC: 0.241478 cumulative IPC: 0.262751 (Simulation time: 0 hr 53 min 25 sec) 
Heartbeat CPU 0 instructions: 17000000 cycles: 32575344 heartbeat IPC: 0.269399 cumulative IPC: 0.263681 (Simulation time: 0 hr 57 min 2 sec) 
Heartbeat CPU 0 instructions: 18000000 cycles: 36443031 heartbeat IPC: 0.258552 cumulative IPC: 0.263029 (Simulation time: 1 hr 0 min 41 sec) 
Heartbeat CPU 0 instructions: 19000000 cycles: 40688145 heartbeat IPC: 0.235565 cumulative IPC: 0.259665 (Simulation time: 1 hr 4 min 19 sec) 
Heartbeat CPU 0 instructions: 20000000 cycles: 44728291 heartbeat IPC: 0.247516 cumulative IPC: 0.258397 (Simulation time: 1 hr 8 min 8 sec) 
Heartbeat CPU 0 instructions: 21000000 cycles: 48205040 heartbeat IPC: 0.287625 cumulative IPC: 0.260806 (Simulation time: 1 hr 11 min 49 sec) 
Heartbeat CPU 0 instructions: 22000001 cycles: 52039406 heartbeat IPC: 0.2608 cumulative IPC: 0.260805 (Simulation time: 1 hr 15 min 27 sec) 
Heartbeat CPU 0 instructions: 23000001 cycles: 55840119 heartbeat IPC: 0.263109 cumulative IPC: 0.260981 (Simulation time: 1 hr 19 min 5 sec) 
Heartbeat CPU 0 instructions: 24000000 cycles: 59569740 heartbeat IPC: 0.268123 cumulative IPC: 0.261479 (Simulation time: 1 hr 22 min 50 sec) 
Heartbeat CPU 0 instructions: 25000000 cycles: 63474594 heartbeat IPC: 0.256092 cumulative IPC: 0.261112 (Simulation time: 1 hr 26 min 23 sec) 
Heartbeat CPU 0 instructions: 26000001 cycles: 67441865 heartbeat IPC: 0.252063 cumulative IPC: 0.260528 (Simulation time: 1 hr 30 min 0 sec) 
Heartbeat CPU 0 instructions: 27000000 cycles: 71443658 heartbeat IPC: 0.249888 cumulative IPC: 0.259877 (Simulation time: 1 hr 33 min 35 sec) 
Heartbeat CPU 0 instructions: 28000000 cycles: 75471897 heartbeat IPC: 0.248247 cumulative IPC: 0.259202 (Simulation time: 1 hr 37 min 28 sec) 
Heartbeat CPU 0 instructions: 29000003 cycles: 79510840 heartbeat IPC: 0.24759 cumulative IPC: 0.258564 (Simulation time: 1 hr 41 min 18 sec) 
Heartbeat CPU 0 instructions: 30000000 cycles: 83138156 heartbeat IPC: 0.275685 cumulative IPC: 0.259369 (Simulation time: 1 hr 44 min 47 sec) 
Heartbeat CPU 0 instructions: 31000000 cycles: 86998883 heartbeat IPC: 0.259019 cumulative IPC: 0.259353 (Simulation time: 1 hr 48 min 35 sec) 
Heartbeat CPU 0 instructions: 32000000 cycles: 90728989 heartbeat IPC: 0.268089 cumulative IPC: 0.259737 (Simulation time: 1 hr 52 min 34 sec) 
Heartbeat CPU 0 instructions: 33000003 cycles: 94480875 heartbeat IPC: 0.266533 cumulative IPC: 0.260026 (Simulation time: 1 hr 56 min 36 sec) 
Heartbeat CPU 0 instructions: 34000001 cycles: 98638081 heartbeat IPC: 0.240546 cumulative IPC: 0.259151 (Simulation time: 2 hr 0 min 9 sec) 
Heartbeat CPU 0 instructions: 35000002 cycles: 102151840 heartbeat IPC: 0.284596 cumulative IPC: 0.260081 (Simulation time: 2 hr 3 min 59 sec) 
Heartbeat CPU 0 instructions: 36000000 cycles: 106411659 heartbeat IPC: 0.234751 cumulative IPC: 0.259007 (Simulation time: 2 hr 8 min 1 sec) 
Heartbeat CPU 0 instructions: 37000000 cycles: 110706539 heartbeat IPC: 0.232835 cumulative IPC: 0.257933 (Simulation time: 2 hr 11 min 50 sec) 
Heartbeat CPU 0 instructions: 38000000 cycles: 114454846 heartbeat IPC: 0.266787 cumulative IPC: 0.258239 (Simulation time: 2 hr 15 min 33 sec) 
Heartbeat CPU 0 instructions: 39000001 cycles: 118617188 heartbeat IPC: 0.24025 cumulative IPC: 0.257574 (Simulation time: 2 hr 19 min 18 sec) 
Heartbeat CPU 0 instructions: 40000000 cycles: 122047194 heartbeat IPC: 0.291544 cumulative IPC: 0.258578 (Simulation time: 2 hr 22 min 42 sec) 
Heartbeat CPU 0 instructions: 41000000 cycles: 125722276 heartbeat IPC: 0.272103 cumulative IPC: 0.258993 (Simulation time: 2 hr 26 min 47 sec) 
Heartbeat CPU 0 instructions: 42000001 cycles: 129996828 heartbeat IPC: 0.233943 cumulative IPC: 0.25813 (Simulation time: 2 hr 30 min 36 sec) 
Heartbeat CPU 0 instructions: 43000001 cycles: 134089394 heartbeat IPC: 0.244345 cumulative IPC: 0.257689 (Simulation time: 2 hr 34 min 21 sec) 
Heartbeat CPU 0 instructions: 44000000 cycles: 137733408 heartbeat IPC: 0.274422 cumulative IPC: 0.258152 (Simulation time: 2 hr 38 min 9 sec) 
Heartbeat CPU 0 instructions: 45000003 cycles: 141600383 heartbeat IPC: 0.258601 cumulative IPC: 0.258165 (Simulation time: 2 hr 41 min 34 sec) 
Heartbeat CPU 0 instructions: 46000003 cycles: 145702045 heartbeat IPC: 0.243804 cumulative IPC: 0.257743 (Simulation time: 2 hr 44 min 52 sec) 
Heartbeat CPU 0 instructions: 47000000 cycles: 148915279 heartbeat IPC: 0.311212 cumulative IPC: 0.258946 (Simulation time: 2 hr 47 min 50 sec) 
Heartbeat CPU 0 instructions: 48000000 cycles: 152905577 heartbeat IPC: 0.250608 cumulative IPC: 0.258719 (Simulation time: 2 hr 51 min 9 sec) 
Heartbeat CPU 0 instructions: 49000000 cycles: 155975537 heartbeat IPC: 0.325737 cumulative IPC: 0.260091 (Simulation time: 2 hr 54 min 10 sec) 
Heartbeat CPU 0 instructions: 50000001 cycles: 160052279 heartbeat IPC: 0.245294 cumulative IPC: 0.259699 (Simulation time: 2 hr 57 min 30 sec) 
Heartbeat CPU 0 instructions: 51000003 cycles: 163778054 heartbeat IPC: 0.268401 cumulative IPC: 0.259905 (Simulation time: 3 hr 0 min 51 sec) 
Heartbeat CPU 0 instructions: 52000000 cycles: 167792049 heartbeat IPC: 0.249128 cumulative IPC: 0.259638 (Simulation time: 3 hr 4 min 30 sec) 
Heartbeat CPU 0 instructions: 53000000 cycles: 172274714 heartbeat IPC: 0.223082 cumulative IPC: 0.258652 (Simulation time: 3 hr 7 min 52 sec) 
Heartbeat CPU 0 instructions: 54000002 cycles: 176375976 heartbeat IPC: 0.243828 cumulative IPC: 0.258295 (Simulation time: 3 hr 11 min 19 sec) 
Heartbeat CPU 0 instructions: 55000001 cycles: 180243096 heartbeat IPC: 0.25859 cumulative IPC: 0.258302 (Simulation time: 3 hr 14 min 41 sec) 
Heartbeat CPU 0 instructions: 56000000 cycles: 184534933 heartbeat IPC: 0.233 cumulative IPC: 0.257693 (Simulation time: 3 hr 18 min 2 sec) 
Heartbeat CPU 0 instructions: 57000001 cycles: 188629385 heartbeat IPC: 0.244233 cumulative IPC: 0.257391 (Simulation time: 3 hr 21 min 19 sec) 
Heartbeat CPU 0 instructions: 58000000 cycles: 191950214 heartbeat IPC: 0.301129 cumulative IPC: 0.258173 (Simulation time: 3 hr 24 min 27 sec) 
Heartbeat CPU 0 instructions: 59000003 cycles: 195860926 heartbeat IPC: 0.255709 cumulative IPC: 0.258122 (Simulation time: 3 hr 27 min 52 sec) 
Heartbeat CPU 0 instructions: 60000000 cycles: 200241822 heartbeat IPC: 0.228263 cumulative IPC: 0.257448 (Simulation time: 3 hr 31 min 23 sec) 
Heartbeat CPU 0 instructions: 61000001 cycles: 204566838 heartbeat IPC: 0.231213 cumulative IPC: 0.256877 (Simulation time: 3 hr 34 min 53 sec) 
Heartbeat CPU 0 instructions: 62000000 cycles: 208892004 heartbeat IPC: 0.231205 cumulative IPC: 0.256329 (Simulation time: 3 hr 38 min 19 sec) 
Heartbeat CPU 0 instructions: 63000001 cycles: 212601497 heartbeat IPC: 0.269579 cumulative IPC: 0.256567 (Simulation time: 3 hr 41 min 31 sec) 
Heartbeat CPU 0 instructions: 64000000 cycles: 216412649 heartbeat IPC: 0.262388 cumulative IPC: 0.256673 (Simulation time: 3 hr 44 min 33 sec) 
Heartbeat CPU 0 instructions: 65000001 cycles: 219829602 heartbeat IPC: 0.292659 cumulative IPC: 0.257248 (Simulation time: 3 hr 47 min 34 sec) 
Heartbeat CPU 0 instructions: 66000002 cycles: 223900308 heartbeat IPC: 0.245658 cumulative IPC: 0.257031 (Simulation time: 3 hr 50 min 40 sec) 
Heartbeat CPU 0 instructions: 67000002 cycles: 227663706 heartbeat IPC: 0.265717 cumulative IPC: 0.257179 (Simulation time: 3 hr 53 min 45 sec) 
Heartbeat CPU 0 instructions: 68000000 cycles: 231476698 heartbeat IPC: 0.262261 cumulative IPC: 0.257265 (Simulation time: 3 hr 56 min 54 sec) 
Heartbeat CPU 0 instructions: 69000000 cycles: 235439549 heartbeat IPC: 0.252344 cumulative IPC: 0.25718 (Simulation time: 4 hr 0 min 6 sec) 
Heartbeat CPU 0 instructions: 70000001 cycles: 238997107 heartbeat IPC: 0.281092 cumulative IPC: 0.257545 (Simulation time: 4 hr 3 min 12 sec) 
Heartbeat CPU 0 instructions: 71000003 cycles: 242860532 heartbeat IPC: 0.258838 cumulative IPC: 0.257566 (Simulation time: 4 hr 6 min 28 sec) 
Heartbeat CPU 0 instructions: 72000000 cycles: 247243563 heartbeat IPC: 0.228152 cumulative IPC: 0.257032 (Simulation time: 4 hr 9 min 51 sec) 
Heartbeat CPU 0 instructions: 73000002 cycles: 251245700 heartbeat IPC: 0.249867 cumulative IPC: 0.256915 (Simulation time: 4 hr 12 min 50 sec) 
Heartbeat CPU 0 instructions: 74000000 cycles: 255033290 heartbeat IPC: 0.26402 cumulative IPC: 0.257023 (Simulation time: 4 hr 15 min 59 sec) 
Heartbeat CPU 0 instructions: 75000003 cycles: 259053145 heartbeat IPC: 0.248766 cumulative IPC: 0.256892 (Simulation time: 4 hr 19 min 13 sec) 
Heartbeat CPU 0 instructions: 76000000 cycles: 262861472 heartbeat IPC: 0.262582 cumulative IPC: 0.256976 (Simulation time: 4 hr 22 min 24 sec) 
Heartbeat CPU 0 instructions: 77000002 cycles: 267420769 heartbeat IPC: 0.219333 cumulative IPC: 0.256319 (Simulation time: 4 hr 25 min 17 sec) 
Heartbeat CPU 0 instructions: 78000003 cycles: 271220694 heartbeat IPC: 0.263163 cumulative IPC: 0.256417 (Simulation time: 4 hr 27 min 50 sec) 
Heartbeat CPU 0 instructions: 79000002 cycles: 275089065 heartbeat IPC: 0.258506 cumulative IPC: 0.256447 (Simulation time: 4 hr 30 min 13 sec) 
Heartbeat CPU 0 instructions: 80000000 cycles: 278916576 heartbeat IPC: 0.261266 cumulative IPC: 0.256515 (Simulation time: 4 hr 32 min 25 sec) 
Heartbeat CPU 0 instructions: 81000002 cycles: 283031167 heartbeat IPC: 0.243038 cumulative IPC: 0.256315 (Simulation time: 4 hr 34 min 41 sec) 
Heartbeat CPU 0 instructions: 82000000 cycles: 287484950 heartbeat IPC: 0.224528 cumulative IPC: 0.255812 (Simulation time: 4 hr 36 min 50 sec) 
Heartbeat CPU 0 instructions: 83000002 cycles: 291224621 heartbeat IPC: 0.267404 cumulative IPC: 0.255964 (Simulation time: 4 hr 38 min 49 sec) 
Heartbeat CPU 0 instructions: 84000000 cycles: 295179955 heartbeat IPC: 0.252823 cumulative IPC: 0.255921 (Simulation time: 4 hr 40 min 37 sec) 
Heartbeat CPU 0 instructions: 85000000 cycles: 299070763 heartbeat IPC: 0.257016 cumulative IPC: 0.255935 (Simulation time: 4 hr 42 min 17 sec) 
Heartbeat CPU 0 instructions: 86000000 cycles: 303088283 heartbeat IPC: 0.24891 cumulative IPC: 0.25584 (Simulation time: 4 hr 43 min 56 sec) 
Heartbeat CPU 0 instructions: 87000001 cycles: 306871625 heartbeat IPC: 0.264317 cumulative IPC: 0.255947 (Simulation time: 4 hr 45 min 21 sec) 
Heartbeat CPU 0 instructions: 88000000 cycles: 310682345 heartbeat IPC: 0.262417 cumulative IPC: 0.256028 (Simulation time: 4 hr 46 min 41 sec) 
Heartbeat CPU 0 instructions: 89000003 cycles: 314207700 heartbeat IPC: 0.28366 cumulative IPC: 0.256344 (Simulation time: 4 hr 47 min 57 sec) 
Heartbeat CPU 0 instructions: 90000000 cycles: 318081850 heartbeat IPC: 0.25812 cumulative IPC: 0.256366 (Simulation time: 4 hr 49 min 11 sec) 
Heartbeat CPU 0 instructions: 91000001 cycles: 321592300 heartbeat IPC: 0.284864 cumulative IPC: 0.256683 (Simulation time: 4 hr 50 min 16 sec) 
Heartbeat CPU 0 instructions: 92000000 cycles: 325606938 heartbeat IPC: 0.249088 cumulative IPC: 0.256588 (Simulation time: 4 hr 51 min 17 sec) 
Heartbeat CPU 0 instructions: 93000001 cycles: 329960486 heartbeat IPC: 0.229698 cumulative IPC: 0.256226 (Simulation time: 4 hr 52 min 19 sec) 
Heartbeat CPU 0 instructions: 94000001 cycles: 333756163 heartbeat IPC: 0.263458 cumulative IPC: 0.25631 (Simulation time: 4 hr 53 min 10 sec) 
Heartbeat CPU 0 instructions: 95000000 cycles: 337723251 heartbeat IPC: 0.252074 cumulative IPC: 0.256259 (Simulation time: 4 hr 54 min 0 sec) 
Heartbeat CPU 0 instructions: 96000000 cycles: 342059897 heartbeat IPC: 0.230593 cumulative IPC: 0.255928 (Simulation time: 4 hr 54 min 42 sec) 
Heartbeat CPU 0 instructions: 97000000 cycles: 345707278 heartbeat IPC: 0.274169 cumulative IPC: 0.256124 (Simulation time: 4 hr 55 min 20 sec) 
Heartbeat CPU 0 instructions: 98000000 cycles: 349913679 heartbeat IPC: 0.237733 cumulative IPC: 0.255899 (Simulation time: 4 hr 55 min 58 sec) 
Heartbeat CPU 0 instructions: 99000000 cycles: 354292890 heartbeat IPC: 0.228352 cumulative IPC: 0.255553 (Simulation time: 4 hr 56 min 29 sec) 
Heartbeat CPU 0 instructions: 100000000 cycles: 358368203 heartbeat IPC: 0.24538 cumulative IPC: 0.255435 (Simulation time: 4 hr 56 min 56 sec) 
Heartbeat CPU 0 instructions: 101000000 cycles: 362281911 heartbeat IPC: 0.255512 cumulative IPC: 0.255436 (Simulation time: 4 hr 57 min 21 sec) 
Heartbeat CPU 0 instructions: 102000003 cycles: 366485988 heartbeat IPC: 0.237865 cumulative IPC: 0.255231 (Simulation time: 4 hr 57 min 46 sec) 
Heartbeat CPU 0 instructions: 103000000 cycles: 370338191 heartbeat IPC: 0.259591 cumulative IPC: 0.255277 (Simulation time: 4 hr 58 min 9 sec) 
Heartbeat CPU 0 instructions: 104000000 cycles: 374108332 heartbeat IPC: 0.265242 cumulative IPC: 0.255379 (Simulation time: 4 hr 58 min 29 sec) 
Heartbeat CPU 0 instructions: 105000003 cycles: 378126644 heartbeat IPC: 0.248861 cumulative IPC: 0.255309 (Simulation time: 4 hr 58 min 49 sec) 
Heartbeat CPU 0 instructions: 106000001 cycles: 381704854 heartbeat IPC: 0.279469 cumulative IPC: 0.255539 (Simulation time: 4 hr 59 min 6 sec) 
Heartbeat CPU 0 instructions: 107000000 cycles: 385856833 heartbeat IPC: 0.240849 cumulative IPC: 0.255378 (Simulation time: 4 hr 59 min 25 sec) 
Heartbeat CPU 0 instructions: 108000000 cycles: 389823058 heartbeat IPC: 0.252129 cumulative IPC: 0.255345 (Simulation time: 4 hr 59 min 44 sec) 
Heartbeat CPU 0 instructions: 109000000 cycles: 394219567 heartbeat IPC: 0.227453 cumulative IPC: 0.255029 (Simulation time: 5 hr 0 min 1 sec) 
Heartbeat CPU 0 instructions: 110000000 cycles: 397842017 heartbeat IPC: 0.276056 cumulative IPC: 0.255223 (Simulation time: 5 hr 0 min 16 sec) 
Finished CPU 0 instructions: 100000000 cycles: 391813924 cummulative IPC: 0.255223 (Simulation time: 5 hr 0 min 16 sec) 

ChampSim completed all CPUs

Region of Interest Statistics

CPU 0 cummulative IPC: 0.255223 instructions: 100000000 cycles: 391813924
LLC TOTAL     ACCESS:    4309238  HIT:    1489123  MISS:    2820115
LLC LOAD      ACCESS:    1522430  HIT:     452783  MISS:    1069647
LLC RFO       ACCESS:     250384  HIT:      81948  MISS:     168436
LLC PREFETCH  ACCESS:    1530388  HIT:     230595  MISS:    1299793
LLC WRITEBACK ACCESS:    1006036  HIT:     723797  MISS:     282239
Insertion Distribution: 
	LOAD 205445 0 318947 644135 
	RFO 75114 0 64577 45299 
	PREF 0 20121 246893 1176872 
	WRITEBACK 0 0 0 307268 
Total Prefetch Downgrades: 33494
