
*** ChampSim Multicore Out-of-Order Simulator ***

Warmup Instructions: 10000000
Simulation Instructions: 100000000
Configuration: 2
Number of CPUs: 1
LLC sets: 2048
LLC ways: 16
Off-chip DRAM Channels: 1 Width: 64-bit Data Rate: 1600 MT/s

CPU 0 runs /datasets/cs240c-wi22-a00-public/data/Assignment2-gz/lbm_1004B.trace.gz
CPU 0 L1D next line prefetcher
CPU 0 L2C IP-based stride prefetcher
Initialize SRRIP state
Heartbeat CPU 0 instructions: 1000002 cycles: 391414 heartbeat IPC: 2.55484 cumulative IPC: 2.55484 (Simulation time: 0 hr 2 min 31 sec) 
Heartbeat CPU 0 instructions: 2000001 cycles: 782838 heartbeat IPC: 2.55477 cumulative IPC: 2.55481 (Simulation time: 0 hr 4 min 59 sec) 
Heartbeat CPU 0 instructions: 3000001 cycles: 1174187 heartbeat IPC: 2.55526 cumulative IPC: 2.55496 (Simulation time: 0 hr 7 min 11 sec) 
Heartbeat CPU 0 instructions: 4000000 cycles: 1570374 heartbeat IPC: 2.52406 cumulative IPC: 2.54716 (Simulation time: 0 hr 9 min 50 sec) 
Heartbeat CPU 0 instructions: 5000002 cycles: 1961791 heartbeat IPC: 2.55483 cumulative IPC: 2.54869 (Simulation time: 0 hr 12 min 6 sec) 
Heartbeat CPU 0 instructions: 6000002 cycles: 2353158 heartbeat IPC: 2.55515 cumulative IPC: 2.54977 (Simulation time: 0 hr 14 min 28 sec) 
Heartbeat CPU 0 instructions: 7000003 cycles: 2749266 heartbeat IPC: 2.52457 cumulative IPC: 2.54614 (Simulation time: 0 hr 16 min 48 sec) 
Heartbeat CPU 0 instructions: 8000000 cycles: 3140619 heartbeat IPC: 2.55523 cumulative IPC: 2.54727 (Simulation time: 0 hr 19 min 14 sec) 
Heartbeat CPU 0 instructions: 9000003 cycles: 3532066 heartbeat IPC: 2.55463 cumulative IPC: 2.54808 (Simulation time: 0 hr 21 min 51 sec) 
Heartbeat CPU 0 instructions: 10000000 cycles: 3923439 heartbeat IPC: 2.5551 cumulative IPC: 2.54878 (Simulation time: 0 hr 24 min 28 sec) 

Warmup complete CPU 0 instructions: 10000004 cycles: 3923440 (Simulation time: 0 hr 24 min 28 sec) 

Heartbeat CPU 0 instructions: 11000002 cycles: 5470876 heartbeat IPC: 0.646231 cumulative IPC: 0.646229 (Simulation time: 0 hr 27 min 20 sec) 
Heartbeat CPU 0 instructions: 12000000 cycles: 6946925 heartbeat IPC: 0.677483 cumulative IPC: 0.661487 (Simulation time: 0 hr 30 min 2 sec) 
Heartbeat CPU 0 instructions: 13000002 cycles: 8470389 heartbeat IPC: 0.6564 cumulative IPC: 0.659783 (Simulation time: 0 hr 32 min 46 sec) 
Heartbeat CPU 0 instructions: 14000003 cycles: 10013324 heartbeat IPC: 0.648116 cumulative IPC: 0.656827 (Simulation time: 0 hr 35 min 26 sec) 
Heartbeat CPU 0 instructions: 15000003 cycles: 11444906 heartbeat IPC: 0.698528 cumulative IPC: 0.664764 (Simulation time: 0 hr 38 min 18 sec) 
Heartbeat CPU 0 instructions: 16000000 cycles: 12946917 heartbeat IPC: 0.665772 cumulative IPC: 0.664932 (Simulation time: 0 hr 41 min 12 sec) 
Heartbeat CPU 0 instructions: 17000000 cycles: 14514905 heartbeat IPC: 0.63776 cumulative IPC: 0.660909 (Simulation time: 0 hr 44 min 5 sec) 
Heartbeat CPU 0 instructions: 18000002 cycles: 15939619 heartbeat IPC: 0.701897 cumulative IPC: 0.665769 (Simulation time: 0 hr 46 min 50 sec) 
Heartbeat CPU 0 instructions: 19000002 cycles: 17408198 heartbeat IPC: 0.68093 cumulative IPC: 0.66742 (Simulation time: 0 hr 49 min 44 sec) 
Heartbeat CPU 0 instructions: 20000000 cycles: 18905497 heartbeat IPC: 0.667868 cumulative IPC: 0.667465 (Simulation time: 0 hr 52 min 22 sec) 
Heartbeat CPU 0 instructions: 21000003 cycles: 20438261 heartbeat IPC: 0.652418 cumulative IPC: 0.666068 (Simulation time: 0 hr 55 min 9 sec) 
Heartbeat CPU 0 instructions: 22000002 cycles: 21877170 heartbeat IPC: 0.69497 cumulative IPC: 0.668385 (Simulation time: 0 hr 57 min 54 sec) 
Heartbeat CPU 0 instructions: 23000001 cycles: 23332324 heartbeat IPC: 0.687212 cumulative IPC: 0.669796 (Simulation time: 1 hr 0 min 37 sec) 
Heartbeat CPU 0 instructions: 24000000 cycles: 24862984 heartbeat IPC: 0.653312 cumulative IPC: 0.668591 (Simulation time: 1 hr 3 min 32 sec) 
Heartbeat CPU 0 instructions: 25000003 cycles: 26341593 heartbeat IPC: 0.676313 cumulative IPC: 0.669101 (Simulation time: 1 hr 6 min 14 sec) 
Heartbeat CPU 0 instructions: 26000002 cycles: 27805066 heartbeat IPC: 0.683305 cumulative IPC: 0.669971 (Simulation time: 1 hr 9 min 1 sec) 
Heartbeat CPU 0 instructions: 27000001 cycles: 29276107 heartbeat IPC: 0.67979 cumulative IPC: 0.670541 (Simulation time: 1 hr 11 min 56 sec) 
Heartbeat CPU 0 instructions: 28000000 cycles: 30825432 heartbeat IPC: 0.645442 cumulative IPC: 0.669095 (Simulation time: 1 hr 14 min 40 sec) 
Heartbeat CPU 0 instructions: 29000002 cycles: 32295038 heartbeat IPC: 0.680456 cumulative IPC: 0.669684 (Simulation time: 1 hr 17 min 27 sec) 
Heartbeat CPU 0 instructions: 30000003 cycles: 33742555 heartbeat IPC: 0.690839 cumulative IPC: 0.670711 (Simulation time: 1 hr 20 min 17 sec) 
Heartbeat CPU 0 instructions: 31000001 cycles: 35245284 heartbeat IPC: 0.665455 cumulative IPC: 0.670458 (Simulation time: 1 hr 23 min 7 sec) 
Heartbeat CPU 0 instructions: 32000000 cycles: 36745957 heartbeat IPC: 0.666367 cumulative IPC: 0.670271 (Simulation time: 1 hr 25 min 58 sec) 
Heartbeat CPU 0 instructions: 33000000 cycles: 38232593 heartbeat IPC: 0.67266 cumulative IPC: 0.670375 (Simulation time: 1 hr 28 min 42 sec) 
Heartbeat CPU 0 instructions: 34000002 cycles: 39746182 heartbeat IPC: 0.660683 cumulative IPC: 0.669965 (Simulation time: 1 hr 31 min 20 sec) 
Heartbeat CPU 0 instructions: 35000001 cycles: 41227918 heartbeat IPC: 0.674883 cumulative IPC: 0.670161 (Simulation time: 1 hr 34 min 3 sec) 
Heartbeat CPU 0 instructions: 36000000 cycles: 42699656 heartbeat IPC: 0.679468 cumulative IPC: 0.670514 (Simulation time: 1 hr 36 min 42 sec) 
Heartbeat CPU 0 instructions: 37000002 cycles: 44163585 heartbeat IPC: 0.683095 cumulative IPC: 0.670972 (Simulation time: 1 hr 39 min 24 sec) 
Heartbeat CPU 0 instructions: 38000000 cycles: 45692188 heartbeat IPC: 0.654191 cumulative IPC: 0.670358 (Simulation time: 1 hr 42 min 0 sec) 
Heartbeat CPU 0 instructions: 39000003 cycles: 47166603 heartbeat IPC: 0.678237 cumulative IPC: 0.670626 (Simulation time: 1 hr 44 min 43 sec) 
Heartbeat CPU 0 instructions: 40000000 cycles: 48627052 heartbeat IPC: 0.684719 cumulative IPC: 0.671087 (Simulation time: 1 hr 47 min 13 sec) 
Heartbeat CPU 0 instructions: 41000002 cycles: 50183357 heartbeat IPC: 0.642549 cumulative IPC: 0.670127 (Simulation time: 1 hr 49 min 55 sec) 
Heartbeat CPU 0 instructions: 42000000 cycles: 51678926 heartbeat IPC: 0.66864 cumulative IPC: 0.67008 (Simulation time: 1 hr 52 min 43 sec) 
Heartbeat CPU 0 instructions: 43000002 cycles: 53139851 heartbeat IPC: 0.684499 cumulative IPC: 0.670508 (Simulation time: 1 hr 55 min 42 sec) 
Heartbeat CPU 0 instructions: 44000000 cycles: 54700516 heartbeat IPC: 0.640751 cumulative IPC: 0.669593 (Simulation time: 1 hr 58 min 29 sec) 
Heartbeat CPU 0 instructions: 45000000 cycles: 56192638 heartbeat IPC: 0.670186 cumulative IPC: 0.66961 (Simulation time: 2 hr 1 min 12 sec) 
Heartbeat CPU 0 instructions: 46000003 cycles: 57679702 heartbeat IPC: 0.672468 cumulative IPC: 0.669689 (Simulation time: 2 hr 3 min 46 sec) 
Heartbeat CPU 0 instructions: 47000002 cycles: 59153102 heartbeat IPC: 0.678702 cumulative IPC: 0.66993 (Simulation time: 2 hr 6 min 28 sec) 
Heartbeat CPU 0 instructions: 48000000 cycles: 60710140 heartbeat IPC: 0.642244 cumulative IPC: 0.669171 (Simulation time: 2 hr 9 min 10 sec) 
Heartbeat CPU 0 instructions: 49000000 cycles: 62172577 heartbeat IPC: 0.68379 cumulative IPC: 0.669538 (Simulation time: 2 hr 11 min 55 sec) 
Heartbeat CPU 0 instructions: 50000003 cycles: 63675240 heartbeat IPC: 0.665487 cumulative IPC: 0.669436 (Simulation time: 2 hr 14 min 29 sec) 
Heartbeat CPU 0 instructions: 51000001 cycles: 65202183 heartbeat IPC: 0.654902 cumulative IPC: 0.669074 (Simulation time: 2 hr 17 min 14 sec) 
Heartbeat CPU 0 instructions: 52000000 cycles: 66658596 heartbeat IPC: 0.686618 cumulative IPC: 0.669481 (Simulation time: 2 hr 19 min 58 sec) 
Heartbeat CPU 0 instructions: 53000002 cycles: 68157787 heartbeat IPC: 0.667028 cumulative IPC: 0.669424 (Simulation time: 2 hr 22 min 39 sec) 
Heartbeat CPU 0 instructions: 54000002 cycles: 69670068 heartbeat IPC: 0.661253 cumulative IPC: 0.669236 (Simulation time: 2 hr 25 min 16 sec) 
Heartbeat CPU 0 instructions: 55000000 cycles: 71158435 heartbeat IPC: 0.671876 cumulative IPC: 0.669294 (Simulation time: 2 hr 28 min 1 sec) 
Heartbeat CPU 0 instructions: 56000000 cycles: 72636731 heartbeat IPC: 0.676454 cumulative IPC: 0.669448 (Simulation time: 2 hr 30 min 44 sec) 
Heartbeat CPU 0 instructions: 57000003 cycles: 74147870 heartbeat IPC: 0.661754 cumulative IPC: 0.669283 (Simulation time: 2 hr 33 min 30 sec) 
Heartbeat CPU 0 instructions: 58000003 cycles: 75697371 heartbeat IPC: 0.645369 cumulative IPC: 0.668766 (Simulation time: 2 hr 36 min 10 sec) 
Heartbeat CPU 0 instructions: 59000002 cycles: 77151235 heartbeat IPC: 0.687822 cumulative IPC: 0.669145 (Simulation time: 2 hr 38 min 43 sec) 
Heartbeat CPU 0 instructions: 60000000 cycles: 78645351 heartbeat IPC: 0.669291 cumulative IPC: 0.669148 (Simulation time: 2 hr 41 min 24 sec) 
Heartbeat CPU 0 instructions: 61000003 cycles: 80199779 heartbeat IPC: 0.643325 cumulative IPC: 0.668621 (Simulation time: 2 hr 44 min 12 sec) 
Heartbeat CPU 0 instructions: 62000001 cycles: 81658819 heartbeat IPC: 0.685381 cumulative IPC: 0.668936 (Simulation time: 2 hr 47 min 10 sec) 
Heartbeat CPU 0 instructions: 63000001 cycles: 83113385 heartbeat IPC: 0.68749 cumulative IPC: 0.669277 (Simulation time: 2 hr 50 min 0 sec) 
Heartbeat CPU 0 instructions: 64000000 cycles: 84577364 heartbeat IPC: 0.683069 cumulative IPC: 0.669527 (Simulation time: 2 hr 53 min 6 sec) 
Heartbeat CPU 0 instructions: 65000000 cycles: 86124342 heartbeat IPC: 0.646422 cumulative IPC: 0.669092 (Simulation time: 2 hr 55 min 51 sec) 
Heartbeat CPU 0 instructions: 66000000 cycles: 87591902 heartbeat IPC: 0.681403 cumulative IPC: 0.669308 (Simulation time: 2 hr 58 min 49 sec) 
Heartbeat CPU 0 instructions: 67000000 cycles: 89068349 heartbeat IPC: 0.677302 cumulative IPC: 0.669447 (Simulation time: 3 hr 1 min 36 sec) 
Heartbeat CPU 0 instructions: 68000000 cycles: 90606437 heartbeat IPC: 0.650158 cumulative IPC: 0.669105 (Simulation time: 3 hr 4 min 19 sec) 
Heartbeat CPU 0 instructions: 69000000 cycles: 92087278 heartbeat IPC: 0.675292 cumulative IPC: 0.669209 (Simulation time: 3 hr 7 min 0 sec) 
Heartbeat CPU 0 instructions: 70000000 cycles: 93581050 heartbeat IPC: 0.669446 cumulative IPC: 0.669213 (Simulation time: 3 hr 10 min 9 sec) 
Heartbeat CPU 0 instructions: 71000002 cycles: 95113332 heartbeat IPC: 0.652623 cumulative IPC: 0.668934 (Simulation time: 3 hr 13 min 0 sec) 
Heartbeat CPU 0 instructions: 72000000 cycles: 97449108 heartbeat IPC: 0.428122 cumulative IPC: 0.66292 (Simulation time: 3 hr 16 min 47 sec) 
Heartbeat CPU 0 instructions: 73000001 cycles: 100730450 heartbeat IPC: 0.304754 cumulative IPC: 0.650779 (Simulation time: 3 hr 21 min 2 sec) 
Heartbeat CPU 0 instructions: 74000002 cycles: 107289000 heartbeat IPC: 0.152473 cumulative IPC: 0.619162 (Simulation time: 3 hr 27 min 19 sec) 
Heartbeat CPU 0 instructions: 75000003 cycles: 109691308 heartbeat IPC: 0.416267 cumulative IPC: 0.614553 (Simulation time: 3 hr 30 min 54 sec) 
Heartbeat CPU 0 instructions: 76000000 cycles: 111764637 heartbeat IPC: 0.482315 cumulative IPC: 0.612011 (Simulation time: 3 hr 34 min 19 sec) 
Heartbeat CPU 0 instructions: 77000000 cycles: 113109504 heartbeat IPC: 0.743568 cumulative IPC: 0.613631 (Simulation time: 3 hr 37 min 16 sec) 
Heartbeat CPU 0 instructions: 78000002 cycles: 114491326 heartbeat IPC: 0.723684 cumulative IPC: 0.615007 (Simulation time: 3 hr 39 min 52 sec) 
Heartbeat CPU 0 instructions: 79000002 cycles: 116020340 heartbeat IPC: 0.654016 cumulative IPC: 0.615539 (Simulation time: 3 hr 42 min 33 sec) 
Heartbeat CPU 0 instructions: 80000000 cycles: 117441782 heartbeat IPC: 0.70351 cumulative IPC: 0.61664 (Simulation time: 3 hr 45 min 24 sec) 
Heartbeat CPU 0 instructions: 81000001 cycles: 118813392 heartbeat IPC: 0.729071 cumulative IPC: 0.617983 (Simulation time: 3 hr 47 min 58 sec) 
Heartbeat CPU 0 instructions: 82000002 cycles: 120286274 heartbeat IPC: 0.678942 cumulative IPC: 0.618754 (Simulation time: 3 hr 50 min 40 sec) 
Heartbeat CPU 0 instructions: 83000003 cycles: 121827186 heartbeat IPC: 0.648967 cumulative IPC: 0.619149 (Simulation time: 3 hr 53 min 20 sec) 
Heartbeat CPU 0 instructions: 84000000 cycles: 123264560 heartbeat IPC: 0.695711 cumulative IPC: 0.620071 (Simulation time: 3 hr 56 min 3 sec) 
Heartbeat CPU 0 instructions: 85000000 cycles: 124750957 heartbeat IPC: 0.672768 cumulative IPC: 0.620719 (Simulation time: 3 hr 58 min 48 sec) 
Heartbeat CPU 0 instructions: 86000000 cycles: 126374803 heartbeat IPC: 0.615822 cumulative IPC: 0.620655 (Simulation time: 4 hr 1 min 21 sec) 
Heartbeat CPU 0 instructions: 87000002 cycles: 127847522 heartbeat IPC: 0.679018 cumulative IPC: 0.621348 (Simulation time: 4 hr 3 min 52 sec) 
Heartbeat CPU 0 instructions: 88000000 cycles: 129316957 heartbeat IPC: 0.680532 cumulative IPC: 0.622042 (Simulation time: 4 hr 6 min 41 sec) 
Heartbeat CPU 0 instructions: 89000003 cycles: 130812532 heartbeat IPC: 0.668641 cumulative IPC: 0.622591 (Simulation time: 4 hr 9 min 11 sec) 
Heartbeat CPU 0 instructions: 90000002 cycles: 132343681 heartbeat IPC: 0.653104 cumulative IPC: 0.622955 (Simulation time: 4 hr 11 min 43 sec) 
Heartbeat CPU 0 instructions: 91000001 cycles: 133783647 heartbeat IPC: 0.69446 cumulative IPC: 0.623748 (Simulation time: 4 hr 14 min 6 sec) 
Heartbeat CPU 0 instructions: 92000000 cycles: 135248193 heartbeat IPC: 0.682805 cumulative IPC: 0.624406 (Simulation time: 4 hr 16 min 25 sec) 
Heartbeat CPU 0 instructions: 93000003 cycles: 136796606 heartbeat IPC: 0.645824 cumulative IPC: 0.624656 (Simulation time: 4 hr 18 min 47 sec) 
Heartbeat CPU 0 instructions: 94000003 cycles: 138253529 heartbeat IPC: 0.686378 cumulative IPC: 0.625325 (Simulation time: 4 hr 21 min 4 sec) 
Heartbeat CPU 0 instructions: 95000000 cycles: 139694097 heartbeat IPC: 0.694169 cumulative IPC: 0.626056 (Simulation time: 4 hr 23 min 12 sec) 
Heartbeat CPU 0 instructions: 96000000 cycles: 141249849 heartbeat IPC: 0.642776 cumulative IPC: 0.626245 (Simulation time: 4 hr 25 min 13 sec) 
Heartbeat CPU 0 instructions: 97000002 cycles: 142753557 heartbeat IPC: 0.665024 cumulative IPC: 0.626665 (Simulation time: 4 hr 27 min 4 sec) 
Heartbeat CPU 0 instructions: 98000001 cycles: 144224327 heartbeat IPC: 0.679915 cumulative IPC: 0.627223 (Simulation time: 4 hr 28 min 47 sec) 
Heartbeat CPU 0 instructions: 99000000 cycles: 145705726 heartbeat IPC: 0.675037 cumulative IPC: 0.627723 (Simulation time: 4 hr 30 min 25 sec) 
Heartbeat CPU 0 instructions: 100000000 cycles: 147281438 heartbeat IPC: 0.634634 cumulative IPC: 0.627799 (Simulation time: 4 hr 32 min 4 sec) 
Heartbeat CPU 0 instructions: 101000000 cycles: 148750475 heartbeat IPC: 0.680718 cumulative IPC: 0.628336 (Simulation time: 4 hr 33 min 39 sec) 
Heartbeat CPU 0 instructions: 102000000 cycles: 150214489 heartbeat IPC: 0.683054 cumulative IPC: 0.628883 (Simulation time: 4 hr 35 min 9 sec) 
Heartbeat CPU 0 instructions: 103000001 cycles: 151800549 heartbeat IPC: 0.630494 cumulative IPC: 0.628901 (Simulation time: 4 hr 36 min 41 sec) 
Heartbeat CPU 0 instructions: 104000000 cycles: 153336310 heartbeat IPC: 0.651142 cumulative IPC: 0.629129 (Simulation time: 4 hr 38 min 10 sec) 
Heartbeat CPU 0 instructions: 105000001 cycles: 154784074 heartbeat IPC: 0.690721 cumulative IPC: 0.62972 (Simulation time: 4 hr 39 min 37 sec) 
Heartbeat CPU 0 instructions: 106000000 cycles: 156221443 heartbeat IPC: 0.695715 cumulative IPC: 0.630343 (Simulation time: 4 hr 40 min 57 sec) 
Heartbeat CPU 0 instructions: 107000000 cycles: 157829315 heartbeat IPC: 0.62194 cumulative IPC: 0.630255 (Simulation time: 4 hr 42 min 15 sec) 
Heartbeat CPU 0 instructions: 108000000 cycles: 159327180 heartbeat IPC: 0.667617 cumulative IPC: 0.630615 (Simulation time: 4 hr 43 min 30 sec) 
Heartbeat CPU 0 instructions: 109000003 cycles: 160786719 heartbeat IPC: 0.68515 cumulative IPC: 0.631123 (Simulation time: 4 hr 44 min 39 sec) 
Heartbeat CPU 0 instructions: 110000001 cycles: 162329459 heartbeat IPC: 0.648196 cumulative IPC: 0.631289 (Simulation time: 4 hr 45 min 52 sec) 
Finished CPU 0 instructions: 100000001 cycles: 158406020 cummulative IPC: 0.631289 (Simulation time: 4 hr 45 min 52 sec) 

ChampSim completed all CPUs

Region of Interest Statistics

CPU 0 cummulative IPC: 0.631289 instructions: 100000001 cycles: 158406020
LLC TOTAL     ACCESS:    5797528  HIT:    1381697  MISS:    4415831
LLC LOAD      ACCESS:     418541  HIT:      19609  MISS:     398932
LLC RFO       ACCESS:    2473107  HIT:     301406  MISS:    2171701
LLC PREFETCH  ACCESS:     432756  HIT:      25443  MISS:     407313
LLC WRITEBACK ACCESS:    2473124  HIT:    1035239  MISS:    1437885
Insertion Distribution: 
	LOAD 0 0 45967 383120 
	RFO 97412 0 626352 1648660 
	PREF 0 10467 94497 345805 
	WRITEBACK 0 0 0 1555403 
Total Prefetch Downgrades: 19570
