
*** ChampSim Multicore Out-of-Order Simulator ***

Warmup Instructions: 10000000
Simulation Instructions: 100000000
Configuration: 2
Number of CPUs: 1
LLC sets: 2048
LLC ways: 16
Off-chip DRAM Channels: 1 Width: 64-bit Data Rate: 1600 MT/s

CPU 0 runs /datasets/cs240c-wi22-a00-public/data/Assignment2-gz/sphinx3_1339B.trace.gz
CPU 0 L1D next line prefetcher
CPU 0 L2C IP-based stride prefetcher
Initialize SRRIP state
Heartbeat CPU 0 instructions: 1000000 cycles: 339022 heartbeat IPC: 2.94966 cumulative IPC: 2.94966 (Simulation time: 0 hr 2 min 25 sec) 
Heartbeat CPU 0 instructions: 2000001 cycles: 693417 heartbeat IPC: 2.82171 cumulative IPC: 2.88427 (Simulation time: 0 hr 4 min 51 sec) 
Heartbeat CPU 0 instructions: 3000000 cycles: 1084463 heartbeat IPC: 2.55724 cumulative IPC: 2.76635 (Simulation time: 0 hr 7 min 20 sec) 
Heartbeat CPU 0 instructions: 4000000 cycles: 1529987 heartbeat IPC: 2.24455 cumulative IPC: 2.6144 (Simulation time: 0 hr 9 min 44 sec) 
Heartbeat CPU 0 instructions: 5000003 cycles: 1869000 heartbeat IPC: 2.94975 cumulative IPC: 2.67523 (Simulation time: 0 hr 12 min 6 sec) 
Heartbeat CPU 0 instructions: 6000002 cycles: 2253262 heartbeat IPC: 2.60239 cumulative IPC: 2.66281 (Simulation time: 0 hr 14 min 33 sec) 
Heartbeat CPU 0 instructions: 7000001 cycles: 2717017 heartbeat IPC: 2.15631 cumulative IPC: 2.57636 (Simulation time: 0 hr 16 min 49 sec) 
Heartbeat CPU 0 instructions: 8000000 cycles: 3055888 heartbeat IPC: 2.95097 cumulative IPC: 2.6179 (Simulation time: 0 hr 19 min 3 sec) 
Heartbeat CPU 0 instructions: 9000003 cycles: 3412470 heartbeat IPC: 2.80441 cumulative IPC: 2.63739 (Simulation time: 0 hr 21 min 20 sec) 
Heartbeat CPU 0 instructions: 10000001 cycles: 3799155 heartbeat IPC: 2.58608 cumulative IPC: 2.63216 (Simulation time: 0 hr 23 min 42 sec) 

Warmup complete CPU 0 instructions: 10000001 cycles: 3799155 (Simulation time: 0 hr 23 min 42 sec) 

Heartbeat CPU 0 instructions: 11000001 cycles: 4680168 heartbeat IPC: 1.13506 cumulative IPC: 1.13506 (Simulation time: 0 hr 26 min 4 sec) 
Heartbeat CPU 0 instructions: 12000000 cycles: 5512756 heartbeat IPC: 1.20107 cumulative IPC: 1.16713 (Simulation time: 0 hr 28 min 41 sec) 
Heartbeat CPU 0 instructions: 13000000 cycles: 6772688 heartbeat IPC: 0.793694 cumulative IPC: 1.0089 (Simulation time: 0 hr 31 min 13 sec) 
Heartbeat CPU 0 instructions: 14000000 cycles: 7630606 heartbeat IPC: 1.16561 cumulative IPC: 1.04399 (Simulation time: 0 hr 33 min 53 sec) 
Heartbeat CPU 0 instructions: 15000001 cycles: 8479291 heartbeat IPC: 1.17829 cumulative IPC: 1.06835 (Simulation time: 0 hr 36 min 31 sec) 
Heartbeat CPU 0 instructions: 16000000 cycles: 9505651 heartbeat IPC: 0.974316 cumulative IPC: 1.05143 (Simulation time: 0 hr 39 min 14 sec) 
Heartbeat CPU 0 instructions: 17000001 cycles: 10838801 heartbeat IPC: 0.750104 cumulative IPC: 0.994368 (Simulation time: 0 hr 42 min 17 sec) 
Heartbeat CPU 0 instructions: 18000003 cycles: 11900571 heartbeat IPC: 0.941825 cumulative IPC: 0.987482 (Simulation time: 0 hr 45 min 15 sec) 
Heartbeat CPU 0 instructions: 19000002 cycles: 12729856 heartbeat IPC: 1.20586 cumulative IPC: 1.00776 (Simulation time: 0 hr 47 min 48 sec) 
Heartbeat CPU 0 instructions: 20000000 cycles: 13574905 heartbeat IPC: 1.18336 cumulative IPC: 1.02294 (Simulation time: 0 hr 50 min 17 sec) 
Heartbeat CPU 0 instructions: 21000000 cycles: 14740384 heartbeat IPC: 0.858016 cumulative IPC: 1.00537 (Simulation time: 0 hr 53 min 1 sec) 
Heartbeat CPU 0 instructions: 22000000 cycles: 15731601 heartbeat IPC: 1.00886 cumulative IPC: 1.00566 (Simulation time: 0 hr 55 min 26 sec) 
Heartbeat CPU 0 instructions: 23000003 cycles: 16542240 heartbeat IPC: 1.2336 cumulative IPC: 1.02016 (Simulation time: 0 hr 57 min 57 sec) 
Heartbeat CPU 0 instructions: 24000000 cycles: 17439897 heartbeat IPC: 1.11401 cumulative IPC: 1.02634 (Simulation time: 1 hr 0 min 18 sec) 
Heartbeat CPU 0 instructions: 25000001 cycles: 18373885 heartbeat IPC: 1.07068 cumulative IPC: 1.02918 (Simulation time: 1 hr 2 min 58 sec) 
Heartbeat CPU 0 instructions: 26000003 cycles: 19167547 heartbeat IPC: 1.25998 cumulative IPC: 1.0411 (Simulation time: 1 hr 5 min 39 sec) 
Heartbeat CPU 0 instructions: 27000002 cycles: 19974739 heartbeat IPC: 1.23886 cumulative IPC: 1.05097 (Simulation time: 1 hr 8 min 18 sec) 
Heartbeat CPU 0 instructions: 28000000 cycles: 20917313 heartbeat IPC: 1.06092 cumulative IPC: 1.05151 (Simulation time: 1 hr 10 min 58 sec) 
Heartbeat CPU 0 instructions: 29000003 cycles: 21690201 heartbeat IPC: 1.29385 cumulative IPC: 1.06198 (Simulation time: 1 hr 13 min 18 sec) 
Heartbeat CPU 0 instructions: 30000003 cycles: 22488425 heartbeat IPC: 1.25278 cumulative IPC: 1.07013 (Simulation time: 1 hr 15 min 43 sec) 
Heartbeat CPU 0 instructions: 31000002 cycles: 23385225 heartbeat IPC: 1.11507 cumulative IPC: 1.07219 (Simulation time: 1 hr 18 min 20 sec) 
Heartbeat CPU 0 instructions: 32000000 cycles: 24206565 heartbeat IPC: 1.21752 cumulative IPC: 1.07804 (Simulation time: 1 hr 20 min 43 sec) 
Heartbeat CPU 0 instructions: 33000001 cycles: 24987617 heartbeat IPC: 1.28033 cumulative IPC: 1.0855 (Simulation time: 1 hr 23 min 9 sec) 
Heartbeat CPU 0 instructions: 34000001 cycles: 26357101 heartbeat IPC: 0.730202 cumulative IPC: 1.06393 (Simulation time: 1 hr 25 min 48 sec) 
Heartbeat CPU 0 instructions: 35000002 cycles: 27252149 heartbeat IPC: 1.11726 cumulative IPC: 1.06596 (Simulation time: 1 hr 28 min 29 sec) 
Heartbeat CPU 0 instructions: 36000000 cycles: 28070802 heartbeat IPC: 1.22152 cumulative IPC: 1.07121 (Simulation time: 1 hr 31 min 9 sec) 
Heartbeat CPU 0 instructions: 37000003 cycles: 29042920 heartbeat IPC: 1.02868 cumulative IPC: 1.06957 (Simulation time: 1 hr 33 min 33 sec) 
Heartbeat CPU 0 instructions: 38000000 cycles: 30203785 heartbeat IPC: 0.861424 cumulative IPC: 1.06042 (Simulation time: 1 hr 36 min 16 sec) 
Heartbeat CPU 0 instructions: 39000000 cycles: 31060399 heartbeat IPC: 1.16739 cumulative IPC: 1.06378 (Simulation time: 1 hr 39 min 0 sec) 
Heartbeat CPU 0 instructions: 40000000 cycles: 31867528 heartbeat IPC: 1.23896 cumulative IPC: 1.06882 (Simulation time: 1 hr 41 min 22 sec) 
Heartbeat CPU 0 instructions: 41000000 cycles: 33084817 heartbeat IPC: 0.821498 cumulative IPC: 1.05854 (Simulation time: 1 hr 44 min 5 sec) 
Heartbeat CPU 0 instructions: 42000002 cycles: 33955883 heartbeat IPC: 1.14802 cumulative IPC: 1.06112 (Simulation time: 1 hr 46 min 28 sec) 
Heartbeat CPU 0 instructions: 43000001 cycles: 34767581 heartbeat IPC: 1.23198 cumulative IPC: 1.0656 (Simulation time: 1 hr 48 min 41 sec) 
Heartbeat CPU 0 instructions: 44000000 cycles: 35790119 heartbeat IPC: 0.977958 cumulative IPC: 1.0628 (Simulation time: 1 hr 51 min 24 sec) 
Heartbeat CPU 0 instructions: 45000002 cycles: 36787196 heartbeat IPC: 1.00293 cumulative IPC: 1.06099 (Simulation time: 1 hr 53 min 55 sec) 
Heartbeat CPU 0 instructions: 46000003 cycles: 37582719 heartbeat IPC: 1.25704 cumulative IPC: 1.06561 (Simulation time: 1 hr 56 min 12 sec) 
Heartbeat CPU 0 instructions: 47000001 cycles: 38382078 heartbeat IPC: 1.251 cumulative IPC: 1.06989 (Simulation time: 1 hr 58 min 58 sec) 
Heartbeat CPU 0 instructions: 48000000 cycles: 39362756 heartbeat IPC: 1.0197 cumulative IPC: 1.06851 (Simulation time: 2 hr 1 min 16 sec) 
Heartbeat CPU 0 instructions: 49000000 cycles: 40181268 heartbeat IPC: 1.22173 cumulative IPC: 1.07196 (Simulation time: 2 hr 3 min 39 sec) 
Heartbeat CPU 0 instructions: 50000000 cycles: 40965838 heartbeat IPC: 1.27458 cumulative IPC: 1.07623 (Simulation time: 2 hr 6 min 1 sec) 
Heartbeat CPU 0 instructions: 51000001 cycles: 42134877 heartbeat IPC: 0.855404 cumulative IPC: 1.0695 (Simulation time: 2 hr 8 min 30 sec) 
Heartbeat CPU 0 instructions: 52000000 cycles: 42948261 heartbeat IPC: 1.22943 cumulative IPC: 1.07282 (Simulation time: 2 hr 11 min 9 sec) 
Heartbeat CPU 0 instructions: 53000002 cycles: 43749652 heartbeat IPC: 1.24783 cumulative IPC: 1.07633 (Simulation time: 2 hr 13 min 49 sec) 
Heartbeat CPU 0 instructions: 54000003 cycles: 44860375 heartbeat IPC: 0.900315 cumulative IPC: 1.07157 (Simulation time: 2 hr 16 min 27 sec) 
Heartbeat CPU 0 instructions: 55000002 cycles: 45745427 heartbeat IPC: 1.12988 cumulative IPC: 1.0728 (Simulation time: 2 hr 19 min 4 sec) 
Heartbeat CPU 0 instructions: 56000000 cycles: 46548158 heartbeat IPC: 1.24574 cumulative IPC: 1.07605 (Simulation time: 2 hr 21 min 45 sec) 
Heartbeat CPU 0 instructions: 57000000 cycles: 47476456 heartbeat IPC: 1.07724 cumulative IPC: 1.07607 (Simulation time: 2 hr 24 min 23 sec) 
Heartbeat CPU 0 instructions: 58000000 cycles: 48544858 heartbeat IPC: 0.935977 cumulative IPC: 1.07273 (Simulation time: 2 hr 27 min 1 sec) 
Heartbeat CPU 0 instructions: 59000002 cycles: 49339498 heartbeat IPC: 1.25843 cumulative IPC: 1.07597 (Simulation time: 2 hr 29 min 33 sec) 
Heartbeat CPU 0 instructions: 60000000 cycles: 50130446 heartbeat IPC: 1.2643 cumulative IPC: 1.07918 (Simulation time: 2 hr 31 min 47 sec) 
Heartbeat CPU 0 instructions: 61000000 cycles: 51453996 heartbeat IPC: 0.755544 cumulative IPC: 1.0702 (Simulation time: 2 hr 34 min 17 sec) 
Heartbeat CPU 0 instructions: 62000002 cycles: 52597577 heartbeat IPC: 0.874448 cumulative IPC: 1.06561 (Simulation time: 2 hr 36 min 42 sec) 
Heartbeat CPU 0 instructions: 63000001 cycles: 53409497 heartbeat IPC: 1.23165 cumulative IPC: 1.06833 (Simulation time: 2 hr 38 min 55 sec) 
Heartbeat CPU 0 instructions: 64000000 cycles: 54198194 heartbeat IPC: 1.26791 cumulative IPC: 1.07145 (Simulation time: 2 hr 41 min 13 sec) 
Heartbeat CPU 0 instructions: 65000000 cycles: 55226490 heartbeat IPC: 0.972483 cumulative IPC: 1.06947 (Simulation time: 2 hr 43 min 40 sec) 
Heartbeat CPU 0 instructions: 66000001 cycles: 56204325 heartbeat IPC: 1.02267 cumulative IPC: 1.0686 (Simulation time: 2 hr 45 min 53 sec) 
Heartbeat CPU 0 instructions: 67000000 cycles: 56987934 heartbeat IPC: 1.27615 cumulative IPC: 1.07165 (Simulation time: 2 hr 48 min 1 sec) 
Heartbeat CPU 0 instructions: 68000000 cycles: 57827433 heartbeat IPC: 1.19119 cumulative IPC: 1.07351 (Simulation time: 2 hr 50 min 18 sec) 
Heartbeat CPU 0 instructions: 69000003 cycles: 58945069 heartbeat IPC: 0.894748 cumulative IPC: 1.06989 (Simulation time: 2 hr 52 min 31 sec) 
Heartbeat CPU 0 instructions: 70000001 cycles: 59778164 heartbeat IPC: 1.20034 cumulative IPC: 1.07183 (Simulation time: 2 hr 54 min 50 sec) 
Heartbeat CPU 0 instructions: 71000001 cycles: 60579077 heartbeat IPC: 1.24858 cumulative IPC: 1.07432 (Simulation time: 2 hr 57 min 2 sec) 
Heartbeat CPU 0 instructions: 72000000 cycles: 61754971 heartbeat IPC: 0.850416 cumulative IPC: 1.06978 (Simulation time: 2 hr 59 min 23 sec) 
Heartbeat CPU 0 instructions: 73000001 cycles: 62575103 heartbeat IPC: 1.21932 cumulative IPC: 1.07187 (Simulation time: 3 hr 1 min 31 sec) 
Heartbeat CPU 0 instructions: 74000000 cycles: 63381547 heartbeat IPC: 1.24001 cumulative IPC: 1.07414 (Simulation time: 3 hr 3 min 57 sec) 
Heartbeat CPU 0 instructions: 75000003 cycles: 64434873 heartbeat IPC: 0.949377 cumulative IPC: 1.07198 (Simulation time: 3 hr 6 min 16 sec) 
Heartbeat CPU 0 instructions: 76000000 cycles: 65365527 heartbeat IPC: 1.07451 cumulative IPC: 1.07201 (Simulation time: 3 hr 8 min 33 sec) 
Heartbeat CPU 0 instructions: 77000002 cycles: 66135880 heartbeat IPC: 1.29811 cumulative IPC: 1.07481 (Simulation time: 3 hr 10 min 55 sec) 
Heartbeat CPU 0 instructions: 78000002 cycles: 67017959 heartbeat IPC: 1.13369 cumulative IPC: 1.07563 (Simulation time: 3 hr 13 min 12 sec) 
Heartbeat CPU 0 instructions: 79000001 cycles: 68081145 heartbeat IPC: 0.940568 cumulative IPC: 1.0734 (Simulation time: 3 hr 15 min 27 sec) 
Heartbeat CPU 0 instructions: 80000000 cycles: 68885633 heartbeat IPC: 1.24303 cumulative IPC: 1.07549 (Simulation time: 3 hr 17 min 50 sec) 
Heartbeat CPU 0 instructions: 81000001 cycles: 69678582 heartbeat IPC: 1.26112 cumulative IPC: 1.07773 (Simulation time: 3 hr 20 min 9 sec) 
Heartbeat CPU 0 instructions: 82000000 cycles: 70807758 heartbeat IPC: 0.885601 cumulative IPC: 1.07449 (Simulation time: 3 hr 22 min 46 sec) 
Heartbeat CPU 0 instructions: 83000001 cycles: 71633973 heartbeat IPC: 1.21034 cumulative IPC: 1.07614 (Simulation time: 3 hr 25 min 11 sec) 
Heartbeat CPU 0 instructions: 84000000 cycles: 72425680 heartbeat IPC: 1.26309 cumulative IPC: 1.0783 (Simulation time: 3 hr 27 min 37 sec) 
Heartbeat CPU 0 instructions: 85000002 cycles: 73509118 heartbeat IPC: 0.92299 cumulative IPC: 1.07589 (Simulation time: 3 hr 30 min 18 sec) 
Heartbeat CPU 0 instructions: 86000003 cycles: 74394805 heartbeat IPC: 1.12907 cumulative IPC: 1.07655 (Simulation time: 3 hr 32 min 37 sec) 
Heartbeat CPU 0 instructions: 87000001 cycles: 75182365 heartbeat IPC: 1.26974 cumulative IPC: 1.07869 (Simulation time: 3 hr 35 min 1 sec) 
Heartbeat CPU 0 instructions: 88000000 cycles: 76134574 heartbeat IPC: 1.05019 cumulative IPC: 1.07831 (Simulation time: 3 hr 37 min 19 sec) 
Heartbeat CPU 0 instructions: 89000000 cycles: 77137307 heartbeat IPC: 0.997274 cumulative IPC: 1.0772 (Simulation time: 3 hr 39 min 30 sec) 
Heartbeat CPU 0 instructions: 90000003 cycles: 77925613 heartbeat IPC: 1.26855 cumulative IPC: 1.07924 (Simulation time: 3 hr 41 min 41 sec) 
Heartbeat CPU 0 instructions: 91000000 cycles: 78717298 heartbeat IPC: 1.26312 cumulative IPC: 1.08118 (Simulation time: 3 hr 43 min 52 sec) 
Heartbeat CPU 0 instructions: 92000000 cycles: 79871713 heartbeat IPC: 0.86624 cumulative IPC: 1.07792 (Simulation time: 3 hr 46 min 8 sec) 
Heartbeat CPU 0 instructions: 93000000 cycles: 80683845 heartbeat IPC: 1.23133 cumulative IPC: 1.07954 (Simulation time: 3 hr 48 min 18 sec) 
Heartbeat CPU 0 instructions: 94000001 cycles: 81464816 heartbeat IPC: 1.28046 cumulative IPC: 1.08156 (Simulation time: 3 hr 50 min 25 sec) 
Heartbeat CPU 0 instructions: 95000002 cycles: 82637170 heartbeat IPC: 0.852986 cumulative IPC: 1.07816 (Simulation time: 3 hr 52 min 33 sec) 
Heartbeat CPU 0 instructions: 96000000 cycles: 83469542 heartbeat IPC: 1.20138 cumulative IPC: 1.07945 (Simulation time: 3 hr 54 min 48 sec) 
Heartbeat CPU 0 instructions: 97000002 cycles: 84252074 heartbeat IPC: 1.27791 cumulative IPC: 1.08138 (Simulation time: 3 hr 57 min 18 sec) 
Heartbeat CPU 0 instructions: 98000000 cycles: 85294015 heartbeat IPC: 0.959745 cumulative IPC: 1.07982 (Simulation time: 3 hr 59 min 41 sec) 
Heartbeat CPU 0 instructions: 99000003 cycles: 86386244 heartbeat IPC: 0.915562 cumulative IPC: 1.07765 (Simulation time: 4 hr 2 min 0 sec) 
Heartbeat CPU 0 instructions: 100000000 cycles: 87192448 heartbeat IPC: 1.24038 cumulative IPC: 1.07922 (Simulation time: 4 hr 4 min 8 sec) 
Heartbeat CPU 0 instructions: 101000000 cycles: 87984508 heartbeat IPC: 1.26253 cumulative IPC: 1.08095 (Simulation time: 4 hr 6 min 20 sec) 
Heartbeat CPU 0 instructions: 102000001 cycles: 89435853 heartbeat IPC: 0.689017 cumulative IPC: 1.07431 (Simulation time: 4 hr 8 min 32 sec) 
Heartbeat CPU 0 instructions: 103000000 cycles: 90712123 heartbeat IPC: 0.783533 cumulative IPC: 1.07004 (Simulation time: 4 hr 10 min 42 sec) 
Heartbeat CPU 0 instructions: 104000000 cycles: 91659355 heartbeat IPC: 1.05571 cumulative IPC: 1.06988 (Simulation time: 4 hr 12 min 45 sec) 
Heartbeat CPU 0 instructions: 105000003 cycles: 92477597 heartbeat IPC: 1.22214 cumulative IPC: 1.07129 (Simulation time: 4 hr 14 min 42 sec) 
Heartbeat CPU 0 instructions: 106000000 cycles: 93318177 heartbeat IPC: 1.18965 cumulative IPC: 1.0724 (Simulation time: 4 hr 16 min 40 sec) 
Heartbeat CPU 0 instructions: 107000001 cycles: 94783234 heartbeat IPC: 0.682568 cumulative IPC: 1.06612 (Simulation time: 4 hr 18 min 42 sec) 
Heartbeat CPU 0 instructions: 108000000 cycles: 95686610 heartbeat IPC: 1.10696 cumulative IPC: 1.06652 (Simulation time: 4 hr 20 min 37 sec) 
Heartbeat CPU 0 instructions: 109000000 cycles: 96508324 heartbeat IPC: 1.21697 cumulative IPC: 1.06786 (Simulation time: 4 hr 22 min 25 sec) 
Heartbeat CPU 0 instructions: 110000000 cycles: 97617133 heartbeat IPC: 0.901869 cumulative IPC: 1.06589 (Simulation time: 4 hr 24 min 18 sec) 
Finished CPU 0 instructions: 100000000 cycles: 93817980 cummulative IPC: 1.06589 (Simulation time: 4 hr 24 min 18 sec) 

ChampSim completed all CPUs

Region of Interest Statistics

CPU 0 cummulative IPC: 1.06589 instructions: 100000000 cycles: 93817980
LLC TOTAL     ACCESS:    1574035  HIT:     877959  MISS:     696076
LLC LOAD      ACCESS:     202343  HIT:     171943  MISS:      30400
LLC RFO       ACCESS:     111354  HIT:     108523  MISS:       2831
LLC PREFETCH  ACCESS:    1127184  HIT:     466969  MISS:     660215
LLC WRITEBACK ACCESS:     133154  HIT:     130524  MISS:       2630
Insertion Distribution: 
	LOAD 13693 0 19443 6384 
	RFO 830 0 4387 1293 
	PREF 0 4143 174357 568546 
	WRITEBACK 0 0 0 2988 
Total Prefetch Downgrades: 7164
