
*** ChampSim Multicore Out-of-Order Simulator ***

Warmup Instructions: 10000000
Simulation Instructions: 100000000
Configuration: 2
Number of CPUs: 1
LLC sets: 2048
LLC ways: 16
Off-chip DRAM Channels: 1 Width: 64-bit Data Rate: 1600 MT/s

CPU 0 runs /datasets/cs240c-wi22-a00-public/data/Assignment2-gz/mcf_46B.trace.gz
CPU 0 L1D next line prefetcher
CPU 0 L2C IP-based stride prefetcher
Initialize SRRIP state
Heartbeat CPU 0 instructions: 1000002 cycles: 492170 heartbeat IPC: 2.03182 cumulative IPC: 2.03182 (Simulation time: 0 hr 3 min 13 sec) 
Heartbeat CPU 0 instructions: 2000002 cycles: 987145 heartbeat IPC: 2.0203 cumulative IPC: 2.02605 (Simulation time: 0 hr 6 min 6 sec) 
Heartbeat CPU 0 instructions: 3000003 cycles: 1513114 heartbeat IPC: 1.90125 cumulative IPC: 1.98267 (Simulation time: 0 hr 9 min 17 sec) 
Heartbeat CPU 0 instructions: 4000000 cycles: 2031879 heartbeat IPC: 1.92765 cumulative IPC: 1.96862 (Simulation time: 0 hr 12 min 26 sec) 
Heartbeat CPU 0 instructions: 5000000 cycles: 2524959 heartbeat IPC: 2.02807 cumulative IPC: 1.98023 (Simulation time: 0 hr 15 min 27 sec) 
Heartbeat CPU 0 instructions: 6000002 cycles: 3027731 heartbeat IPC: 1.98898 cumulative IPC: 1.98168 (Simulation time: 0 hr 18 min 35 sec) 
Heartbeat CPU 0 instructions: 7000001 cycles: 3572886 heartbeat IPC: 1.83434 cumulative IPC: 1.9592 (Simulation time: 0 hr 21 min 44 sec) 
Heartbeat CPU 0 instructions: 8000000 cycles: 4063207 heartbeat IPC: 2.03948 cumulative IPC: 1.96889 (Simulation time: 0 hr 24 min 51 sec) 
Heartbeat CPU 0 instructions: 9000001 cycles: 4546127 heartbeat IPC: 2.07074 cumulative IPC: 1.97971 (Simulation time: 0 hr 28 min 0 sec) 
Heartbeat CPU 0 instructions: 10000001 cycles: 5083616 heartbeat IPC: 1.8605 cumulative IPC: 1.9671 (Simulation time: 0 hr 31 min 11 sec) 

Warmup complete CPU 0 instructions: 10000001 cycles: 5083616 (Simulation time: 0 hr 31 min 11 sec) 

Heartbeat CPU 0 instructions: 11000002 cycles: 15692114 heartbeat IPC: 0.0942641 cumulative IPC: 0.0942641 (Simulation time: 0 hr 36 min 4 sec) 
Heartbeat CPU 0 instructions: 12000000 cycles: 19777154 heartbeat IPC: 0.244795 cumulative IPC: 0.136114 (Simulation time: 0 hr 39 min 54 sec) 
Heartbeat CPU 0 instructions: 13000000 cycles: 27123957 heartbeat IPC: 0.136114 cumulative IPC: 0.136114 (Simulation time: 0 hr 44 min 12 sec) 
Heartbeat CPU 0 instructions: 14000003 cycles: 41557456 heartbeat IPC: 0.0692835 cumulative IPC: 0.109668 (Simulation time: 0 hr 49 min 51 sec) 
Heartbeat CPU 0 instructions: 15000000 cycles: 45759016 heartbeat IPC: 0.238006 cumulative IPC: 0.122924 (Simulation time: 0 hr 53 min 31 sec) 
Heartbeat CPU 0 instructions: 16000000 cycles: 49546420 heartbeat IPC: 0.264033 cumulative IPC: 0.134944 (Simulation time: 0 hr 57 min 14 sec) 
Heartbeat CPU 0 instructions: 17000002 cycles: 65219450 heartbeat IPC: 0.063804 cumulative IPC: 0.116403 (Simulation time: 1 hr 3 min 37 sec) 
Heartbeat CPU 0 instructions: 18000001 cycles: 70544124 heartbeat IPC: 0.187805 cumulative IPC: 0.122211 (Simulation time: 1 hr 7 min 51 sec) 
Heartbeat CPU 0 instructions: 19000002 cycles: 75106896 heartbeat IPC: 0.219165 cumulative IPC: 0.128529 (Simulation time: 1 hr 11 min 55 sec) 
Heartbeat CPU 0 instructions: 20000000 cycles: 87139569 heartbeat IPC: 0.0831069 cumulative IPC: 0.121868 (Simulation time: 1 hr 17 min 9 sec) 
Heartbeat CPU 0 instructions: 21000002 cycles: 103158082 heartbeat IPC: 0.0624279 cumulative IPC: 0.11216 (Simulation time: 1 hr 23 min 21 sec) 
Heartbeat CPU 0 instructions: 22000002 cycles: 107380973 heartbeat IPC: 0.236805 cumulative IPC: 0.117305 (Simulation time: 1 hr 27 min 16 sec) 
Heartbeat CPU 0 instructions: 23000001 cycles: 111192482 heartbeat IPC: 0.262363 cumulative IPC: 0.122516 (Simulation time: 1 hr 30 min 59 sec) 
Heartbeat CPU 0 instructions: 24000000 cycles: 124124065 heartbeat IPC: 0.07733 cumulative IPC: 0.117607 (Simulation time: 1 hr 36 min 26 sec) 
Heartbeat CPU 0 instructions: 25000002 cycles: 131867095 heartbeat IPC: 0.129149 cumulative IPC: 0.118312 (Simulation time: 1 hr 41 min 22 sec) 
Heartbeat CPU 0 instructions: 26000001 cycles: 135682578 heartbeat IPC: 0.26209 cumulative IPC: 0.122512 (Simulation time: 1 hr 45 min 11 sec) 
Heartbeat CPU 0 instructions: 27000000 cycles: 145346100 heartbeat IPC: 0.103482 cumulative IPC: 0.121201 (Simulation time: 1 hr 49 min 51 sec) 
Heartbeat CPU 0 instructions: 28000000 cycles: 156623287 heartbeat IPC: 0.0886746 cumulative IPC: 0.118781 (Simulation time: 1 hr 54 min 49 sec) 
Heartbeat CPU 0 instructions: 29000001 cycles: 160919310 heartbeat IPC: 0.232774 cumulative IPC: 0.121923 (Simulation time: 1 hr 58 min 58 sec) 
Heartbeat CPU 0 instructions: 30000000 cycles: 168009070 heartbeat IPC: 0.141048 cumulative IPC: 0.122756 (Simulation time: 2 hr 3 min 26 sec) 
Heartbeat CPU 0 instructions: 31000001 cycles: 181770285 heartbeat IPC: 0.0726681 cumulative IPC: 0.118854 (Simulation time: 2 hr 8 min 55 sec) 
Heartbeat CPU 0 instructions: 32000000 cycles: 186052847 heartbeat IPC: 0.233505 cumulative IPC: 0.121568 (Simulation time: 2 hr 12 min 38 sec) 
Heartbeat CPU 0 instructions: 33000000 cycles: 192255528 heartbeat IPC: 0.161221 cumulative IPC: 0.122882 (Simulation time: 2 hr 16 min 33 sec) 
Heartbeat CPU 0 instructions: 34000000 cycles: 207361296 heartbeat IPC: 0.0661999 cumulative IPC: 0.118649 (Simulation time: 2 hr 22 min 43 sec) 
Heartbeat CPU 0 instructions: 35000000 cycles: 213389164 heartbeat IPC: 0.165896 cumulative IPC: 0.120016 (Simulation time: 2 hr 26 min 53 sec) 
Heartbeat CPU 0 instructions: 36000000 cycles: 219351129 heartbeat IPC: 0.16773 cumulative IPC: 0.121344 (Simulation time: 2 hr 30 min 34 sec) 
Heartbeat CPU 0 instructions: 37000002 cycles: 229403389 heartbeat IPC: 0.0994803 cumulative IPC: 0.120364 (Simulation time: 2 hr 35 min 38 sec) 
Heartbeat CPU 0 instructions: 38000001 cycles: 240262669 heartbeat IPC: 0.092087 cumulative IPC: 0.119058 (Simulation time: 2 hr 40 min 40 sec) 
Heartbeat CPU 0 instructions: 39000000 cycles: 244330498 heartbeat IPC: 0.245831 cumulative IPC: 0.121214 (Simulation time: 2 hr 44 min 8 sec) 
Heartbeat CPU 0 instructions: 40000000 cycles: 250135619 heartbeat IPC: 0.172262 cumulative IPC: 0.122423 (Simulation time: 2 hr 47 min 54 sec) 
Heartbeat CPU 0 instructions: 41000000 cycles: 264906417 heartbeat IPC: 0.0677011 cumulative IPC: 0.119312 (Simulation time: 2 hr 53 min 57 sec) 
Heartbeat CPU 0 instructions: 42000001 cycles: 269585468 heartbeat IPC: 0.213719 cumulative IPC: 0.120982 (Simulation time: 2 hr 57 min 45 sec) 
Heartbeat CPU 0 instructions: 43000000 cycles: 273528118 heartbeat IPC: 0.253636 cumulative IPC: 0.12293 (Simulation time: 3 hr 1 min 29 sec) 
Heartbeat CPU 0 instructions: 44000000 cycles: 286992581 heartbeat IPC: 0.0742696 cumulative IPC: 0.120606 (Simulation time: 3 hr 6 min 52 sec) 
Heartbeat CPU 0 instructions: 45000001 cycles: 294435574 heartbeat IPC: 0.134355 cumulative IPC: 0.12096 (Simulation time: 3 hr 11 min 18 sec) 
Heartbeat CPU 0 instructions: 46000001 cycles: 298514738 heartbeat IPC: 0.245148 cumulative IPC: 0.122686 (Simulation time: 3 hr 14 min 46 sec) 
Heartbeat CPU 0 instructions: 47000002 cycles: 307877131 heartbeat IPC: 0.10681 cumulative IPC: 0.122195 (Simulation time: 3 hr 19 min 16 sec) 
Heartbeat CPU 0 instructions: 48000000 cycles: 319393377 heartbeat IPC: 0.0868337 cumulative IPC: 0.1209 (Simulation time: 3 hr 24 min 30 sec) 
Heartbeat CPU 0 instructions: 49000000 cycles: 323873730 heartbeat IPC: 0.223197 cumulative IPC: 0.122338 (Simulation time: 3 hr 28 min 10 sec) 
Heartbeat CPU 0 instructions: 50000001 cycles: 330001022 heartbeat IPC: 0.163204 cumulative IPC: 0.123108 (Simulation time: 3 hr 32 min 14 sec) 
Heartbeat CPU 0 instructions: 51000001 cycles: 344660606 heartbeat IPC: 0.0682148 cumulative IPC: 0.120738 (Simulation time: 3 hr 38 min 1 sec) 
Heartbeat CPU 0 instructions: 52000000 cycles: 349167930 heartbeat IPC: 0.221861 cumulative IPC: 0.122063 (Simulation time: 3 hr 42 min 11 sec) 
Heartbeat CPU 0 instructions: 53000000 cycles: 353230964 heartbeat IPC: 0.246121 cumulative IPC: 0.123511 (Simulation time: 3 hr 46 min 34 sec) 
Heartbeat CPU 0 instructions: 54000002 cycles: 368972389 heartbeat IPC: 0.0635268 cumulative IPC: 0.120916 (Simulation time: 3 hr 52 min 36 sec) 
Heartbeat CPU 0 instructions: 55000002 cycles: 374119654 heartbeat IPC: 0.194278 cumulative IPC: 0.121939 (Simulation time: 3 hr 56 min 24 sec) 
Heartbeat CPU 0 instructions: 56000000 cycles: 378303774 heartbeat IPC: 0.238998 cumulative IPC: 0.123252 (Simulation time: 3 hr 59 min 53 sec) 
Heartbeat CPU 0 instructions: 57000000 cycles: 391697751 heartbeat IPC: 0.0746604 cumulative IPC: 0.121568 (Simulation time: 4 hr 5 min 3 sec) 
Heartbeat CPU 0 instructions: 58000000 cycles: 399179572 heartbeat IPC: 0.133657 cumulative IPC: 0.121798 (Simulation time: 4 hr 9 min 15 sec) 
Heartbeat CPU 0 instructions: 59000002 cycles: 403311525 heartbeat IPC: 0.242017 cumulative IPC: 0.123045 (Simulation time: 4 hr 12 min 37 sec) 
Heartbeat CPU 0 instructions: 60000000 cycles: 415025813 heartbeat IPC: 0.0853657 cumulative IPC: 0.121968 (Simulation time: 4 hr 17 min 6 sec) 
Heartbeat CPU 0 instructions: 61000002 cycles: 424508099 heartbeat IPC: 0.10546 cumulative IPC: 0.121595 (Simulation time: 4 hr 21 min 14 sec) 
Heartbeat CPU 0 instructions: 62000001 cycles: 428625761 heartbeat IPC: 0.242856 cumulative IPC: 0.122774 (Simulation time: 4 hr 24 min 15 sec) 
Heartbeat CPU 0 instructions: 63000001 cycles: 438631543 heartbeat IPC: 0.0999422 cumulative IPC: 0.122247 (Simulation time: 4 hr 27 min 52 sec) 
Heartbeat CPU 0 instructions: 64000000 cycles: 450057793 heartbeat IPC: 0.0875177 cumulative IPC: 0.121355 (Simulation time: 4 hr 31 min 23 sec) 
Heartbeat CPU 0 instructions: 65000002 cycles: 455264478 heartbeat IPC: 0.192061 cumulative IPC: 0.122173 (Simulation time: 4 hr 33 min 43 sec) 
Heartbeat CPU 0 instructions: 66000000 cycles: 461479737 heartbeat IPC: 0.160894 cumulative IPC: 0.1227 (Simulation time: 4 hr 36 min 2 sec) 
Heartbeat CPU 0 instructions: 67000002 cycles: 477551970 heartbeat IPC: 0.0622192 cumulative IPC: 0.120643 (Simulation time: 4 hr 39 min 29 sec) 
Heartbeat CPU 0 instructions: 68000000 cycles: 481955898 heartbeat IPC: 0.22707 cumulative IPC: 0.121626 (Simulation time: 4 hr 41 min 27 sec) 
Heartbeat CPU 0 instructions: 69000000 cycles: 485918677 heartbeat IPC: 0.252348 cumulative IPC: 0.122703 (Simulation time: 4 hr 43 min 11 sec) 
Heartbeat CPU 0 instructions: 70000001 cycles: 500290831 heartbeat IPC: 0.0695791 cumulative IPC: 0.121161 (Simulation time: 4 hr 45 min 48 sec) 
Heartbeat CPU 0 instructions: 71000002 cycles: 508715809 heartbeat IPC: 0.118695 cumulative IPC: 0.12112 (Simulation time: 4 hr 47 min 32 sec) 
Heartbeat CPU 0 instructions: 72000000 cycles: 513448634 heartbeat IPC: 0.21129 cumulative IPC: 0.12196 (Simulation time: 4 hr 48 min 53 sec) 
Heartbeat CPU 0 instructions: 73000002 cycles: 522434566 heartbeat IPC: 0.111285 cumulative IPC: 0.121774 (Simulation time: 4 hr 50 min 27 sec) 
Heartbeat CPU 0 instructions: 74000001 cycles: 534258972 heartbeat IPC: 0.0845708 cumulative IPC: 0.120943 (Simulation time: 4 hr 51 min 56 sec) 
Heartbeat CPU 0 instructions: 75000001 cycles: 538685043 heartbeat IPC: 0.225934 cumulative IPC: 0.121814 (Simulation time: 4 hr 52 min 51 sec) 
Heartbeat CPU 0 instructions: 76000000 cycles: 544591772 heartbeat IPC: 0.169298 cumulative IPC: 0.122334 (Simulation time: 4 hr 53 min 40 sec) 
Heartbeat CPU 0 instructions: 77000001 cycles: 560770867 heartbeat IPC: 0.0618082 cumulative IPC: 0.120571 (Simulation time: 4 hr 54 min 48 sec) 
Heartbeat CPU 0 instructions: 78000002 cycles: 565481789 heartbeat IPC: 0.212273 cumulative IPC: 0.121342 (Simulation time: 4 hr 55 min 28 sec) 
Heartbeat CPU 0 instructions: 79000001 cycles: 569722749 heartbeat IPC: 0.235795 cumulative IPC: 0.122202 (Simulation time: 4 hr 56 min 4 sec) 
Heartbeat CPU 0 instructions: 80000000 cycles: 583148566 heartbeat IPC: 0.0744833 cumulative IPC: 0.121094 (Simulation time: 4 hr 56 min 49 sec) 
Heartbeat CPU 0 instructions: 81000000 cycles: 590564722 heartbeat IPC: 0.134841 cumulative IPC: 0.121268 (Simulation time: 4 hr 57 min 21 sec) 
Heartbeat CPU 0 instructions: 82000000 cycles: 595304054 heartbeat IPC: 0.211 cumulative IPC: 0.121988 (Simulation time: 4 hr 57 min 46 sec) 
Heartbeat CPU 0 instructions: 83000001 cycles: 604933113 heartbeat IPC: 0.103852 cumulative IPC: 0.121697 (Simulation time: 4 hr 58 min 16 sec) 
Heartbeat CPU 0 instructions: 84000000 cycles: 616472807 heartbeat IPC: 0.0866573 cumulative IPC: 0.121036 (Simulation time: 4 hr 58 min 45 sec) 
Heartbeat CPU 0 instructions: 85000001 cycles: 620639832 heartbeat IPC: 0.23998 cumulative IPC: 0.121841 (Simulation time: 4 hr 59 min 4 sec) 
Heartbeat CPU 0 instructions: 86000000 cycles: 628361356 heartbeat IPC: 0.129508 cumulative IPC: 0.121936 (Simulation time: 4 hr 59 min 25 sec) 
Heartbeat CPU 0 instructions: 87000000 cycles: 643295654 heartbeat IPC: 0.06696 cumulative IPC: 0.12065 (Simulation time: 4 hr 59 min 54 sec) 
Heartbeat CPU 0 instructions: 88000000 cycles: 649348209 heartbeat IPC: 0.165219 cumulative IPC: 0.121068 (Simulation time: 5 hr 0 min 12 sec) 
Heartbeat CPU 0 instructions: 89000000 cycles: 653408007 heartbeat IPC: 0.246318 cumulative IPC: 0.121853 (Simulation time: 5 hr 0 min 26 sec) 
Heartbeat CPU 0 instructions: 90000003 cycles: 665356620 heartbeat IPC: 0.083692 cumulative IPC: 0.121162 (Simulation time: 5 hr 0 min 43 sec) 
Heartbeat CPU 0 instructions: 91000000 cycles: 674194128 heartbeat IPC: 0.113154 cumulative IPC: 0.121056 (Simulation time: 5 hr 0 min 58 sec) 
Heartbeat CPU 0 instructions: 92000000 cycles: 678328869 heartbeat IPC: 0.241853 cumulative IPC: 0.121798 (Simulation time: 5 hr 1 min 6 sec) 
Heartbeat CPU 0 instructions: 93000002 cycles: 687273425 heartbeat IPC: 0.1118 cumulative IPC: 0.121667 (Simulation time: 5 hr 1 min 16 sec) 
Heartbeat CPU 0 instructions: 94000002 cycles: 699008245 heartbeat IPC: 0.0852165 cumulative IPC: 0.121051 (Simulation time: 5 hr 1 min 28 sec) 
Heartbeat CPU 0 instructions: 95000000 cycles: 704702836 heartbeat IPC: 0.175605 cumulative IPC: 0.121495 (Simulation time: 5 hr 1 min 35 sec) 
Heartbeat CPU 0 instructions: 96000000 cycles: 710255272 heartbeat IPC: 0.180101 cumulative IPC: 0.121956 (Simulation time: 5 hr 1 min 43 sec) 
Heartbeat CPU 0 instructions: 97000000 cycles: 725552963 heartbeat IPC: 0.0653693 cumulative IPC: 0.120755 (Simulation time: 5 hr 1 min 54 sec) 
Heartbeat CPU 0 instructions: 98000002 cycles: 730189548 heartbeat IPC: 0.215676 cumulative IPC: 0.121362 (Simulation time: 5 hr 2 min 0 sec) 
Heartbeat CPU 0 instructions: 99000002 cycles: 734741071 heartbeat IPC: 0.219707 cumulative IPC: 0.121975 (Simulation time: 5 hr 2 min 7 sec) 
Heartbeat CPU 0 instructions: 100000000 cycles: 749164967 heartbeat IPC: 0.0693293 cumulative IPC: 0.120955 (Simulation time: 5 hr 2 min 16 sec) 
Heartbeat CPU 0 instructions: 101000000 cycles: 755908520 heartbeat IPC: 0.14829 cumulative IPC: 0.1212 (Simulation time: 5 hr 2 min 22 sec) 
Heartbeat CPU 0 instructions: 102000003 cycles: 760016680 heartbeat IPC: 0.243419 cumulative IPC: 0.121865 (Simulation time: 5 hr 2 min 28 sec) 
Heartbeat CPU 0 instructions: 103000003 cycles: 772130124 heartbeat IPC: 0.0825529 cumulative IPC: 0.121244 (Simulation time: 5 hr 2 min 36 sec) 
Heartbeat CPU 0 instructions: 104000000 cycles: 783470770 heartbeat IPC: 0.0881781 cumulative IPC: 0.120763 (Simulation time: 5 hr 2 min 43 sec) 
Heartbeat CPU 0 instructions: 105000000 cycles: 788106805 heartbeat IPC: 0.215702 cumulative IPC: 0.121325 (Simulation time: 5 hr 2 min 49 sec) 
Heartbeat CPU 0 instructions: 106000000 cycles: 792172518 heartbeat IPC: 0.245959 cumulative IPC: 0.121968 (Simulation time: 5 hr 2 min 55 sec) 
Heartbeat CPU 0 instructions: 107000002 cycles: 807876189 heartbeat IPC: 0.0636795 cumulative IPC: 0.120828 (Simulation time: 5 hr 3 min 4 sec) 
Heartbeat CPU 0 instructions: 108000000 cycles: 813139103 heartbeat IPC: 0.190008 cumulative IPC: 0.121279 (Simulation time: 5 hr 3 min 10 sec) 
Heartbeat CPU 0 instructions: 109000001 cycles: 817359973 heartbeat IPC: 0.236918 cumulative IPC: 0.12188 (Simulation time: 5 hr 3 min 16 sec) 
Heartbeat CPU 0 instructions: 110000002 cycles: 827153384 heartbeat IPC: 0.10211 cumulative IPC: 0.121644 (Simulation time: 5 hr 3 min 23 sec) 
Finished CPU 0 instructions: 100000001 cycles: 822069768 cummulative IPC: 0.121644 (Simulation time: 5 hr 3 min 23 sec) 

ChampSim completed all CPUs

Region of Interest Statistics

CPU 0 cummulative IPC: 0.121644 instructions: 100000001 cycles: 822069768
LLC TOTAL     ACCESS:   18764945  HIT:    8382652  MISS:   10382293
LLC LOAD      ACCESS:    8471552  HIT:    4414738  MISS:    4056814
LLC RFO       ACCESS:     206422  HIT:      65423  MISS:     140999
LLC PREFETCH  ACCESS:    7979239  HIT:    2181237  MISS:    5798002
LLC WRITEBACK ACCESS:    2107732  HIT:    1721254  MISS:     386478
Insertion Distribution: 
	LOAD 880327 0 921283 2579390 
	RFO 66976 0 62790 24301 
	PREF 0 1596985 1551108 3256682 
	WRITEBACK 0 0 0 433651 
Total Prefetch Downgrades: 1337378
