
*** ChampSim Multicore Out-of-Order Simulator ***

Warmup Instructions: 10000000
Simulation Instructions: 100000000
Configuration: 2
Number of CPUs: 1
LLC sets: 2048
LLC ways: 16
Off-chip DRAM Channels: 1 Width: 64-bit Data Rate: 1600 MT/s

CPU 0 runs /datasets/cs240c-wi22-a00-public/data/Assignment2-gz/astar_163B.trace.gz
CPU 0 L1D next line prefetcher
CPU 0 L2C IP-based stride prefetcher
Initialize SRRIP state
Heartbeat CPU 0 instructions: 1000002 cycles: 531212 heartbeat IPC: 1.88249 cumulative IPC: 1.88249 (Simulation time: 0 hr 2 min 54 sec) 
Heartbeat CPU 0 instructions: 2000003 cycles: 1060822 heartbeat IPC: 1.88818 cumulative IPC: 1.88533 (Simulation time: 0 hr 5 min 56 sec) 
Heartbeat CPU 0 instructions: 3000003 cycles: 1590855 heartbeat IPC: 1.88668 cumulative IPC: 1.88578 (Simulation time: 0 hr 9 min 3 sec) 
Heartbeat CPU 0 instructions: 4000000 cycles: 2120959 heartbeat IPC: 1.88642 cumulative IPC: 1.88594 (Simulation time: 0 hr 11 min 55 sec) 
Heartbeat CPU 0 instructions: 5000000 cycles: 2652872 heartbeat IPC: 1.88001 cumulative IPC: 1.88475 (Simulation time: 0 hr 14 min 49 sec) 
Heartbeat CPU 0 instructions: 6000002 cycles: 3181385 heartbeat IPC: 1.8921 cumulative IPC: 1.88597 (Simulation time: 0 hr 17 min 33 sec) 
Heartbeat CPU 0 instructions: 7000003 cycles: 3710910 heartbeat IPC: 1.88849 cumulative IPC: 1.88633 (Simulation time: 0 hr 20 min 9 sec) 
Heartbeat CPU 0 instructions: 8000000 cycles: 4240193 heartbeat IPC: 1.88934 cumulative IPC: 1.88671 (Simulation time: 0 hr 23 min 2 sec) 
Heartbeat CPU 0 instructions: 9000000 cycles: 4771202 heartbeat IPC: 1.88321 cumulative IPC: 1.88632 (Simulation time: 0 hr 25 min 46 sec) 
Heartbeat CPU 0 instructions: 10000001 cycles: 5301286 heartbeat IPC: 1.8865 cumulative IPC: 1.88633 (Simulation time: 0 hr 28 min 22 sec) 

Warmup complete CPU 0 instructions: 10000001 cycles: 5301286 (Simulation time: 0 hr 28 min 22 sec) 

Heartbeat CPU 0 instructions: 11000003 cycles: 7520751 heartbeat IPC: 0.45056 cumulative IPC: 0.45056 (Simulation time: 0 hr 31 min 28 sec) 
Heartbeat CPU 0 instructions: 12000000 cycles: 9762269 heartbeat IPC: 0.446125 cumulative IPC: 0.448331 (Simulation time: 0 hr 34 min 33 sec) 
Heartbeat CPU 0 instructions: 13000000 cycles: 12011580 heartbeat IPC: 0.444581 cumulative IPC: 0.447074 (Simulation time: 0 hr 37 min 30 sec) 
Heartbeat CPU 0 instructions: 14000000 cycles: 14263758 heartbeat IPC: 0.444015 cumulative IPC: 0.446305 (Simulation time: 0 hr 40 min 29 sec) 
Heartbeat CPU 0 instructions: 15000000 cycles: 16575731 heartbeat IPC: 0.432531 cumulative IPC: 0.443481 (Simulation time: 0 hr 43 min 58 sec) 
Heartbeat CPU 0 instructions: 16000000 cycles: 18931882 heartbeat IPC: 0.424421 cumulative IPC: 0.440186 (Simulation time: 0 hr 46 min 50 sec) 
Heartbeat CPU 0 instructions: 17000003 cycles: 21245062 heartbeat IPC: 0.432307 cumulative IPC: 0.439043 (Simulation time: 0 hr 49 min 45 sec) 
Heartbeat CPU 0 instructions: 18000002 cycles: 23542720 heartbeat IPC: 0.435225 cumulative IPC: 0.438562 (Simulation time: 0 hr 52 min 46 sec) 
Heartbeat CPU 0 instructions: 19000000 cycles: 25841758 heartbeat IPC: 0.434964 cumulative IPC: 0.438159 (Simulation time: 0 hr 55 min 40 sec) 
Heartbeat CPU 0 instructions: 20000000 cycles: 28142271 heartbeat IPC: 0.434686 cumulative IPC: 0.437809 (Simulation time: 0 hr 58 min 46 sec) 
Heartbeat CPU 0 instructions: 21000003 cycles: 30488254 heartbeat IPC: 0.426262 cumulative IPC: 0.436734 (Simulation time: 1 hr 1 min 49 sec) 
Heartbeat CPU 0 instructions: 22000002 cycles: 32950155 heartbeat IPC: 0.40619 cumulative IPC: 0.434014 (Simulation time: 1 hr 4 min 50 sec) 
Heartbeat CPU 0 instructions: 23000001 cycles: 35365466 heartbeat IPC: 0.414025 cumulative IPC: 0.432408 (Simulation time: 1 hr 7 min 52 sec) 
Heartbeat CPU 0 instructions: 24000000 cycles: 37800203 heartbeat IPC: 0.410722 cumulative IPC: 0.430784 (Simulation time: 1 hr 11 min 2 sec) 
Heartbeat CPU 0 instructions: 25000003 cycles: 39970236 heartbeat IPC: 0.460824 cumulative IPC: 0.432664 (Simulation time: 1 hr 13 min 57 sec) 
Heartbeat CPU 0 instructions: 26000003 cycles: 41719693 heartbeat IPC: 0.571606 cumulative IPC: 0.439338 (Simulation time: 1 hr 17 min 5 sec) 
Heartbeat CPU 0 instructions: 27000000 cycles: 43545200 heartbeat IPC: 0.547791 cumulative IPC: 0.444515 (Simulation time: 1 hr 20 min 15 sec) 
Heartbeat CPU 0 instructions: 28000000 cycles: 45485584 heartbeat IPC: 0.515362 cumulative IPC: 0.447936 (Simulation time: 1 hr 22 min 57 sec) 
Heartbeat CPU 0 instructions: 29000000 cycles: 47420580 heartbeat IPC: 0.516797 cumulative IPC: 0.4511 (Simulation time: 1 hr 25 min 59 sec) 
Heartbeat CPU 0 instructions: 30000000 cycles: 49340805 heartbeat IPC: 0.520772 cumulative IPC: 0.454138 (Simulation time: 1 hr 28 min 57 sec) 
Heartbeat CPU 0 instructions: 31000001 cycles: 51207040 heartbeat IPC: 0.535839 cumulative IPC: 0.457459 (Simulation time: 1 hr 32 min 3 sec) 
Heartbeat CPU 0 instructions: 32000000 cycles: 53111345 heartbeat IPC: 0.525125 cumulative IPC: 0.460154 (Simulation time: 1 hr 34 min 57 sec) 
Heartbeat CPU 0 instructions: 33000000 cycles: 54997021 heartbeat IPC: 0.530314 cumulative IPC: 0.462816 (Simulation time: 1 hr 37 min 48 sec) 
Heartbeat CPU 0 instructions: 34000001 cycles: 56857090 heartbeat IPC: 0.537615 cumulative IPC: 0.465515 (Simulation time: 1 hr 40 min 55 sec) 
Heartbeat CPU 0 instructions: 35000001 cycles: 58731319 heartbeat IPC: 0.533553 cumulative IPC: 0.467902 (Simulation time: 1 hr 43 min 58 sec) 
Heartbeat CPU 0 instructions: 36000000 cycles: 60592609 heartbeat IPC: 0.537261 cumulative IPC: 0.470237 (Simulation time: 1 hr 46 min 52 sec) 
Heartbeat CPU 0 instructions: 37000000 cycles: 62534482 heartbeat IPC: 0.514967 cumulative IPC: 0.471754 (Simulation time: 1 hr 49 min 40 sec) 
Heartbeat CPU 0 instructions: 38000000 cycles: 64421079 heartbeat IPC: 0.530055 cumulative IPC: 0.473615 (Simulation time: 1 hr 52 min 37 sec) 
Heartbeat CPU 0 instructions: 39000001 cycles: 66272903 heartbeat IPC: 0.540009 cumulative IPC: 0.475631 (Simulation time: 1 hr 55 min 53 sec) 
Heartbeat CPU 0 instructions: 40000000 cycles: 68152734 heartbeat IPC: 0.531962 cumulative IPC: 0.477316 (Simulation time: 1 hr 59 min 2 sec) 
Heartbeat CPU 0 instructions: 41000001 cycles: 70067595 heartbeat IPC: 0.522232 cumulative IPC: 0.478644 (Simulation time: 2 hr 2 min 2 sec) 
Heartbeat CPU 0 instructions: 42000001 cycles: 72051692 heartbeat IPC: 0.504008 cumulative IPC: 0.479398 (Simulation time: 2 hr 5 min 1 sec) 
Heartbeat CPU 0 instructions: 43000001 cycles: 74061988 heartbeat IPC: 0.497439 cumulative IPC: 0.479925 (Simulation time: 2 hr 7 min 51 sec) 
Heartbeat CPU 0 instructions: 44000000 cycles: 76099657 heartbeat IPC: 0.490756 cumulative IPC: 0.480237 (Simulation time: 2 hr 10 min 37 sec) 
Heartbeat CPU 0 instructions: 45000000 cycles: 78156297 heartbeat IPC: 0.48623 cumulative IPC: 0.480406 (Simulation time: 2 hr 13 min 13 sec) 
Heartbeat CPU 0 instructions: 46000002 cycles: 80054212 heartbeat IPC: 0.526895 cumulative IPC: 0.481587 (Simulation time: 2 hr 16 min 10 sec) 
Heartbeat CPU 0 instructions: 47000000 cycles: 81960302 heartbeat IPC: 0.524633 cumulative IPC: 0.482657 (Simulation time: 2 hr 19 min 19 sec) 
Heartbeat CPU 0 instructions: 48000000 cycles: 83885219 heartbeat IPC: 0.519503 cumulative IPC: 0.483559 (Simulation time: 2 hr 22 min 24 sec) 
Heartbeat CPU 0 instructions: 49000003 cycles: 85834090 heartbeat IPC: 0.513119 cumulative IPC: 0.484275 (Simulation time: 2 hr 25 min 16 sec) 
Heartbeat CPU 0 instructions: 50000001 cycles: 87745121 heartbeat IPC: 0.523277 cumulative IPC: 0.485179 (Simulation time: 2 hr 28 min 17 sec) 
Heartbeat CPU 0 instructions: 51000003 cycles: 89676854 heartbeat IPC: 0.517671 cumulative IPC: 0.485923 (Simulation time: 2 hr 31 min 35 sec) 
Heartbeat CPU 0 instructions: 52000000 cycles: 91691200 heartbeat IPC: 0.496438 cumulative IPC: 0.486168 (Simulation time: 2 hr 34 min 19 sec) 
Heartbeat CPU 0 instructions: 53000001 cycles: 93650278 heartbeat IPC: 0.510445 cumulative IPC: 0.486706 (Simulation time: 2 hr 37 min 11 sec) 
Heartbeat CPU 0 instructions: 54000003 cycles: 95542768 heartbeat IPC: 0.528405 cumulative IPC: 0.487581 (Simulation time: 2 hr 40 min 20 sec) 
Heartbeat CPU 0 instructions: 55000000 cycles: 97408721 heartbeat IPC: 0.535918 cumulative IPC: 0.48856 (Simulation time: 2 hr 43 min 20 sec) 
Heartbeat CPU 0 instructions: 56000000 cycles: 99292888 heartbeat IPC: 0.530739 cumulative IPC: 0.489405 (Simulation time: 2 hr 46 min 15 sec) 
Heartbeat CPU 0 instructions: 57000000 cycles: 101151467 heartbeat IPC: 0.538045 cumulative IPC: 0.490349 (Simulation time: 2 hr 49 min 16 sec) 
Heartbeat CPU 0 instructions: 58000001 cycles: 103074920 heartbeat IPC: 0.519899 cumulative IPC: 0.49093 (Simulation time: 2 hr 52 min 22 sec) 
Heartbeat CPU 0 instructions: 59000003 cycles: 105002717 heartbeat IPC: 0.518728 cumulative IPC: 0.491467 (Simulation time: 2 hr 55 min 21 sec) 
Heartbeat CPU 0 instructions: 60000000 cycles: 106920614 heartbeat IPC: 0.521403 cumulative IPC: 0.492032 (Simulation time: 2 hr 58 min 42 sec) 
Heartbeat CPU 0 instructions: 61000002 cycles: 108807414 heartbeat IPC: 0.529999 cumulative IPC: 0.492724 (Simulation time: 3 hr 1 min 40 sec) 
Heartbeat CPU 0 instructions: 62000001 cycles: 110698810 heartbeat IPC: 0.528709 cumulative IPC: 0.49337 (Simulation time: 3 hr 5 min 7 sec) 
Heartbeat CPU 0 instructions: 63000001 cycles: 112735619 heartbeat IPC: 0.490964 cumulative IPC: 0.493325 (Simulation time: 3 hr 8 min 2 sec) 
Heartbeat CPU 0 instructions: 64000000 cycles: 114684730 heartbeat IPC: 0.513054 cumulative IPC: 0.493676 (Simulation time: 3 hr 10 min 53 sec) 
Heartbeat CPU 0 instructions: 65000000 cycles: 116623712 heartbeat IPC: 0.515735 cumulative IPC: 0.49406 (Simulation time: 3 hr 13 min 43 sec) 
Heartbeat CPU 0 instructions: 66000000 cycles: 118569095 heartbeat IPC: 0.514038 cumulative IPC: 0.494403 (Simulation time: 3 hr 16 min 44 sec) 
Heartbeat CPU 0 instructions: 67000003 cycles: 120509170 heartbeat IPC: 0.515446 cumulative IPC: 0.494758 (Simulation time: 3 hr 19 min 43 sec) 
Heartbeat CPU 0 instructions: 68000000 cycles: 122431062 heartbeat IPC: 0.520319 cumulative IPC: 0.495177 (Simulation time: 3 hr 22 min 45 sec) 
Heartbeat CPU 0 instructions: 69000000 cycles: 124350980 heartbeat IPC: 0.520856 cumulative IPC: 0.495591 (Simulation time: 3 hr 25 min 50 sec) 
Heartbeat CPU 0 instructions: 70000000 cycles: 126287471 heartbeat IPC: 0.516398 cumulative IPC: 0.495924 (Simulation time: 3 hr 28 min 39 sec) 
Heartbeat CPU 0 instructions: 71000001 cycles: 128232979 heartbeat IPC: 0.514005 cumulative IPC: 0.496211 (Simulation time: 3 hr 31 min 44 sec) 
Heartbeat CPU 0 instructions: 72000000 cycles: 130183381 heartbeat IPC: 0.512714 cumulative IPC: 0.496468 (Simulation time: 3 hr 34 min 45 sec) 
Heartbeat CPU 0 instructions: 73000000 cycles: 132122547 heartbeat IPC: 0.515686 cumulative IPC: 0.496762 (Simulation time: 3 hr 37 min 46 sec) 
Heartbeat CPU 0 instructions: 74000000 cycles: 134048758 heartbeat IPC: 0.519154 cumulative IPC: 0.497097 (Simulation time: 3 hr 40 min 44 sec) 
Heartbeat CPU 0 instructions: 75000001 cycles: 135951183 heartbeat IPC: 0.525645 cumulative IPC: 0.497513 (Simulation time: 3 hr 43 min 41 sec) 
Heartbeat CPU 0 instructions: 76000000 cycles: 137875574 heartbeat IPC: 0.519644 cumulative IPC: 0.497834 (Simulation time: 3 hr 46 min 35 sec) 
Heartbeat CPU 0 instructions: 77000001 cycles: 139903947 heartbeat IPC: 0.493006 cumulative IPC: 0.497761 (Simulation time: 3 hr 49 min 15 sec) 
Heartbeat CPU 0 instructions: 78000000 cycles: 141868909 heartbeat IPC: 0.508915 cumulative IPC: 0.497922 (Simulation time: 3 hr 52 min 13 sec) 
Heartbeat CPU 0 instructions: 79000003 cycles: 143923938 heartbeat IPC: 0.486613 cumulative IPC: 0.497754 (Simulation time: 3 hr 55 min 9 sec) 
Heartbeat CPU 0 instructions: 80000000 cycles: 146030800 heartbeat IPC: 0.474638 cumulative IPC: 0.497408 (Simulation time: 3 hr 58 min 6 sec) 
Heartbeat CPU 0 instructions: 81000003 cycles: 148144843 heartbeat IPC: 0.473029 cumulative IPC: 0.497047 (Simulation time: 4 hr 0 min 38 sec) 
Heartbeat CPU 0 instructions: 82000000 cycles: 150178683 heartbeat IPC: 0.491679 cumulative IPC: 0.496972 (Simulation time: 4 hr 3 min 23 sec) 
Heartbeat CPU 0 instructions: 83000000 cycles: 152158714 heartbeat IPC: 0.505043 cumulative IPC: 0.497081 (Simulation time: 4 hr 6 min 19 sec) 
Heartbeat CPU 0 instructions: 84000000 cycles: 154134978 heartbeat IPC: 0.506005 cumulative IPC: 0.497199 (Simulation time: 4 hr 9 min 2 sec) 
Heartbeat CPU 0 instructions: 85000001 cycles: 156099276 heartbeat IPC: 0.509088 cumulative IPC: 0.497354 (Simulation time: 4 hr 11 min 40 sec) 
Heartbeat CPU 0 instructions: 86000002 cycles: 158056315 heartbeat IPC: 0.510977 cumulative IPC: 0.497529 (Simulation time: 4 hr 14 min 2 sec) 
Heartbeat CPU 0 instructions: 87000000 cycles: 160045069 heartbeat IPC: 0.502826 cumulative IPC: 0.497597 (Simulation time: 4 hr 16 min 30 sec) 
Heartbeat CPU 0 instructions: 88000000 cycles: 162083691 heartbeat IPC: 0.490527 cumulative IPC: 0.497505 (Simulation time: 4 hr 18 min 45 sec) 
Heartbeat CPU 0 instructions: 89000003 cycles: 164068482 heartbeat IPC: 0.503833 cumulative IPC: 0.497584 (Simulation time: 4 hr 21 min 12 sec) 
Heartbeat CPU 0 instructions: 90000000 cycles: 166042199 heartbeat IPC: 0.506657 cumulative IPC: 0.497695 (Simulation time: 4 hr 23 min 37 sec) 
Heartbeat CPU 0 instructions: 91000000 cycles: 168019669 heartbeat IPC: 0.505697 cumulative IPC: 0.497793 (Simulation time: 4 hr 25 min 52 sec) 
Heartbeat CPU 0 instructions: 92000000 cycles: 170007641 heartbeat IPC: 0.503025 cumulative IPC: 0.497856 (Simulation time: 4 hr 27 min 54 sec) 
Heartbeat CPU 0 instructions: 93000003 cycles: 171959411 heartbeat IPC: 0.512357 cumulative IPC: 0.498026 (Simulation time: 4 hr 29 min 47 sec) 
Heartbeat CPU 0 instructions: 94000000 cycles: 173894379 heartbeat IPC: 0.516803 cumulative IPC: 0.498241 (Simulation time: 4 hr 31 min 37 sec) 
Heartbeat CPU 0 instructions: 95000000 cycles: 175863268 heartbeat IPC: 0.507901 cumulative IPC: 0.498353 (Simulation time: 4 hr 33 min 27 sec) 
Heartbeat CPU 0 instructions: 96000000 cycles: 177865186 heartbeat IPC: 0.499521 cumulative IPC: 0.498366 (Simulation time: 4 hr 35 min 7 sec) 
Heartbeat CPU 0 instructions: 97000000 cycles: 179864926 heartbeat IPC: 0.500065 cumulative IPC: 0.498386 (Simulation time: 4 hr 36 min 44 sec) 
Heartbeat CPU 0 instructions: 98000000 cycles: 181841429 heartbeat IPC: 0.505944 cumulative IPC: 0.49847 (Simulation time: 4 hr 38 min 18 sec) 
Heartbeat CPU 0 instructions: 99000000 cycles: 183909493 heartbeat IPC: 0.483544 cumulative IPC: 0.498297 (Simulation time: 4 hr 39 min 47 sec) 
Heartbeat CPU 0 instructions: 100000000 cycles: 185900202 heartbeat IPC: 0.502334 cumulative IPC: 0.498342 (Simulation time: 4 hr 41 min 10 sec) 
Heartbeat CPU 0 instructions: 101000000 cycles: 187920692 heartbeat IPC: 0.494929 cumulative IPC: 0.498304 (Simulation time: 4 hr 42 min 27 sec) 
Heartbeat CPU 0 instructions: 102000003 cycles: 189911651 heartbeat IPC: 0.502272 cumulative IPC: 0.498347 (Simulation time: 4 hr 43 min 49 sec) 
Heartbeat CPU 0 instructions: 103000000 cycles: 191855244 heartbeat IPC: 0.514509 cumulative IPC: 0.498515 (Simulation time: 4 hr 45 min 4 sec) 
Heartbeat CPU 0 instructions: 104000000 cycles: 193791019 heartbeat IPC: 0.516589 cumulative IPC: 0.498701 (Simulation time: 4 hr 46 min 19 sec) 
Heartbeat CPU 0 instructions: 105000002 cycles: 195721868 heartbeat IPC: 0.517908 cumulative IPC: 0.498896 (Simulation time: 4 hr 47 min 31 sec) 
Heartbeat CPU 0 instructions: 106000003 cycles: 197638233 heartbeat IPC: 0.521822 cumulative IPC: 0.499124 (Simulation time: 4 hr 48 min 37 sec) 
Heartbeat CPU 0 instructions: 107000000 cycles: 199571711 heartbeat IPC: 0.517201 cumulative IPC: 0.499304 (Simulation time: 4 hr 49 min 40 sec) 
Heartbeat CPU 0 instructions: 108000000 cycles: 201626325 heartbeat IPC: 0.486709 cumulative IPC: 0.499172 (Simulation time: 4 hr 50 min 36 sec) 
Heartbeat CPU 0 instructions: 109000003 cycles: 203637487 heartbeat IPC: 0.497226 cumulative IPC: 0.499152 (Simulation time: 4 hr 51 min 30 sec) 
Heartbeat CPU 0 instructions: 110000002 cycles: 205621525 heartbeat IPC: 0.504022 cumulative IPC: 0.499201 (Simulation time: 4 hr 52 min 23 sec) 
Finished CPU 0 instructions: 100000001 cycles: 200320239 cummulative IPC: 0.499201 (Simulation time: 4 hr 52 min 23 sec) 

ChampSim completed all CPUs

Region of Interest Statistics

CPU 0 cummulative IPC: 0.499201 instructions: 100000001 cycles: 200320239
LLC TOTAL     ACCESS:     479231  HIT:     262656  MISS:     216575
LLC LOAD      ACCESS:     108310  HIT:      58255  MISS:      50055
LLC RFO       ACCESS:      72100  HIT:      25731  MISS:      46369
LLC PREFETCH  ACCESS:     138959  HIT:      63032  MISS:      75927
LLC WRITEBACK ACCESS:     159862  HIT:     115638  MISS:      44224
Insertion Distribution: 
	LOAD 14975 0 31137 18016 
	RFO 2609 0 20189 27446 
	PREF 0 5743 35306 55693 
	WRITEBACK 0 0 0 45712 
Total Prefetch Downgrades: 8035
