
*** ChampSim Multicore Out-of-Order Simulator ***

Warmup Instructions: 10000000
Simulation Instructions: 100000000
Configuration: 2
Number of CPUs: 1
LLC sets: 2048
LLC ways: 16
Off-chip DRAM Channels: 1 Width: 64-bit Data Rate: 1600 MT/s

CPU 0 runs /datasets/cs240c-wi22-a00-public/data/Assignment2-gz/libquantum_1735B.trace.gz
CPU 0 L1D next line prefetcher
CPU 0 L2C IP-based stride prefetcher
Initialize SRRIP state
Heartbeat CPU 0 instructions: 1000001 cycles: 333341 heartbeat IPC: 2.99993 cumulative IPC: 2.99993 (Simulation time: 0 hr 1 min 45 sec) 
Heartbeat CPU 0 instructions: 2000000 cycles: 666674 heartbeat IPC: 3 cumulative IPC: 2.99997 (Simulation time: 0 hr 3 min 22 sec) 
Heartbeat CPU 0 instructions: 3000000 cycles: 989045 heartbeat IPC: 3.10202 cumulative IPC: 3.03323 (Simulation time: 0 hr 5 min 2 sec) 
Heartbeat CPU 0 instructions: 4000000 cycles: 1290770 heartbeat IPC: 3.31428 cumulative IPC: 3.09893 (Simulation time: 0 hr 6 min 41 sec) 
Heartbeat CPU 0 instructions: 5000001 cycles: 1592495 heartbeat IPC: 3.31428 cumulative IPC: 3.13973 (Simulation time: 0 hr 8 min 14 sec) 
Heartbeat CPU 0 instructions: 6000001 cycles: 1894219 heartbeat IPC: 3.31429 cumulative IPC: 3.16753 (Simulation time: 0 hr 9 min 50 sec) 
Heartbeat CPU 0 instructions: 7000002 cycles: 2195942 heartbeat IPC: 3.3143 cumulative IPC: 3.1877 (Simulation time: 0 hr 11 min 23 sec) 
Heartbeat CPU 0 instructions: 8000000 cycles: 2501897 heartbeat IPC: 3.26845 cumulative IPC: 3.19757 (Simulation time: 0 hr 12 min 56 sec) 
Heartbeat CPU 0 instructions: 9000000 cycles: 2835230 heartbeat IPC: 3 cumulative IPC: 3.17435 (Simulation time: 0 hr 14 min 27 sec) 
Heartbeat CPU 0 instructions: 10000002 cycles: 3168564 heartbeat IPC: 3 cumulative IPC: 3.156 (Simulation time: 0 hr 15 min 55 sec) 

Warmup complete CPU 0 instructions: 10000002 cycles: 3168564 (Simulation time: 0 hr 15 min 55 sec) 

Heartbeat CPU 0 instructions: 11000001 cycles: 4597249 heartbeat IPC: 0.699944 cumulative IPC: 0.699944 (Simulation time: 0 hr 18 min 15 sec) 
Heartbeat CPU 0 instructions: 12000000 cycles: 6028198 heartbeat IPC: 0.698836 cumulative IPC: 0.69939 (Simulation time: 0 hr 20 min 50 sec) 
Heartbeat CPU 0 instructions: 13000001 cycles: 7871111 heartbeat IPC: 0.54262 cumulative IPC: 0.637952 (Simulation time: 0 hr 23 min 13 sec) 
Heartbeat CPU 0 instructions: 14000000 cycles: 10453277 heartbeat IPC: 0.387271 cumulative IPC: 0.549095 (Simulation time: 0 hr 25 min 22 sec) 
Heartbeat CPU 0 instructions: 15000000 cycles: 13040270 heartbeat IPC: 0.386549 cumulative IPC: 0.506498 (Simulation time: 0 hr 27 min 40 sec) 
Heartbeat CPU 0 instructions: 16000000 cycles: 15629519 heartbeat IPC: 0.386212 cumulative IPC: 0.481504 (Simulation time: 0 hr 30 min 3 sec) 
Heartbeat CPU 0 instructions: 17000002 cycles: 18227210 heartbeat IPC: 0.384958 cumulative IPC: 0.464849 (Simulation time: 0 hr 32 min 19 sec) 
Heartbeat CPU 0 instructions: 18000001 cycles: 20485310 heartbeat IPC: 0.44285 cumulative IPC: 0.46198 (Simulation time: 0 hr 34 min 53 sec) 
Heartbeat CPU 0 instructions: 19000000 cycles: 22004785 heartbeat IPC: 0.658121 cumulative IPC: 0.477803 (Simulation time: 0 hr 37 min 50 sec) 
Heartbeat CPU 0 instructions: 20000000 cycles: 23520992 heartbeat IPC: 0.659541 cumulative IPC: 0.491342 (Simulation time: 0 hr 40 min 36 sec) 
Heartbeat CPU 0 instructions: 21000001 cycles: 25037247 heartbeat IPC: 0.65952 cumulative IPC: 0.503002 (Simulation time: 0 hr 43 min 26 sec) 
Heartbeat CPU 0 instructions: 22000000 cycles: 26548439 heartbeat IPC: 0.661729 cumulative IPC: 0.513262 (Simulation time: 0 hr 46 min 2 sec) 
Heartbeat CPU 0 instructions: 23000000 cycles: 28798087 heartbeat IPC: 0.444514 cumulative IPC: 0.507227 (Simulation time: 0 hr 48 min 18 sec) 
Heartbeat CPU 0 instructions: 24000000 cycles: 31565430 heartbeat IPC: 0.361357 cumulative IPC: 0.493012 (Simulation time: 0 hr 50 min 35 sec) 
Heartbeat CPU 0 instructions: 25000000 cycles: 34331435 heartbeat IPC: 0.361532 cumulative IPC: 0.481342 (Simulation time: 0 hr 52 min 50 sec) 
Heartbeat CPU 0 instructions: 26000000 cycles: 37099178 heartbeat IPC: 0.361305 cumulative IPC: 0.47155 (Simulation time: 0 hr 55 min 4 sec) 
Heartbeat CPU 0 instructions: 27000001 cycles: 39879819 heartbeat IPC: 0.35963 cumulative IPC: 0.463073 (Simulation time: 0 hr 57 min 21 sec) 
Heartbeat CPU 0 instructions: 28000000 cycles: 41920751 heartbeat IPC: 0.489972 cumulative IPC: 0.46449 (Simulation time: 0 hr 59 min 50 sec) 
Heartbeat CPU 0 instructions: 29000000 cycles: 43359878 heartbeat IPC: 0.694866 cumulative IPC: 0.472739 (Simulation time: 1 hr 2 min 30 sec) 
Heartbeat CPU 0 instructions: 30000001 cycles: 44793464 heartbeat IPC: 0.697552 cumulative IPC: 0.480482 (Simulation time: 1 hr 5 min 2 sec) 
Heartbeat CPU 0 instructions: 31000000 cycles: 46226444 heartbeat IPC: 0.697846 cumulative IPC: 0.487716 (Simulation time: 1 hr 7 min 30 sec) 
Heartbeat CPU 0 instructions: 32000000 cycles: 47659020 heartbeat IPC: 0.698043 cumulative IPC: 0.494488 (Simulation time: 1 hr 10 min 9 sec) 
Heartbeat CPU 0 instructions: 33000002 cycles: 49770422 heartbeat IPC: 0.47362 cumulative IPC: 0.493543 (Simulation time: 1 hr 12 min 35 sec) 
Heartbeat CPU 0 instructions: 34000002 cycles: 52074137 heartbeat IPC: 0.434081 cumulative IPC: 0.490742 (Simulation time: 1 hr 14 min 44 sec) 
Heartbeat CPU 0 instructions: 35000000 cycles: 54374417 heartbeat IPC: 0.434729 cumulative IPC: 0.488225 (Simulation time: 1 hr 17 min 2 sec) 
Heartbeat CPU 0 instructions: 36000000 cycles: 56674667 heartbeat IPC: 0.434735 cumulative IPC: 0.485926 (Simulation time: 1 hr 19 min 25 sec) 
Heartbeat CPU 0 instructions: 37000002 cycles: 58980274 heartbeat IPC: 0.433726 cumulative IPC: 0.483769 (Simulation time: 1 hr 21 min 37 sec) 
Heartbeat CPU 0 instructions: 38000003 cycles: 60771668 heartbeat IPC: 0.558225 cumulative IPC: 0.486085 (Simulation time: 1 hr 24 min 12 sec) 
Heartbeat CPU 0 instructions: 39000000 cycles: 62197424 heartbeat IPC: 0.70138 cumulative IPC: 0.491285 (Simulation time: 1 hr 26 min 53 sec) 
Heartbeat CPU 0 instructions: 40000000 cycles: 63620977 heartbeat IPC: 0.702468 cumulative IPC: 0.496258 (Simulation time: 1 hr 29 min 19 sec) 
Heartbeat CPU 0 instructions: 41000000 cycles: 65045144 heartbeat IPC: 0.702165 cumulative IPC: 0.500997 (Simulation time: 1 hr 31 min 49 sec) 
Heartbeat CPU 0 instructions: 42000001 cycles: 66470582 heartbeat IPC: 0.701539 cumulative IPC: 0.505513 (Simulation time: 1 hr 34 min 25 sec) 
Heartbeat CPU 0 instructions: 43000000 cycles: 68626594 heartbeat IPC: 0.463819 cumulative IPC: 0.50414 (Simulation time: 1 hr 36 min 40 sec) 
Heartbeat CPU 0 instructions: 44000000 cycles: 70923720 heartbeat IPC: 0.435327 cumulative IPC: 0.501807 (Simulation time: 1 hr 39 min 11 sec) 
Heartbeat CPU 0 instructions: 45000001 cycles: 73225216 heartbeat IPC: 0.4345 cumulative IPC: 0.499596 (Simulation time: 1 hr 41 min 40 sec) 
Heartbeat CPU 0 instructions: 46000002 cycles: 75527934 heartbeat IPC: 0.43427 cumulative IPC: 0.497517 (Simulation time: 1 hr 44 min 1 sec) 
Heartbeat CPU 0 instructions: 47000000 cycles: 77840257 heartbeat IPC: 0.432465 cumulative IPC: 0.495502 (Simulation time: 1 hr 46 min 14 sec) 
Heartbeat CPU 0 instructions: 48000000 cycles: 79653958 heartbeat IPC: 0.551359 cumulative IPC: 0.496827 (Simulation time: 1 hr 48 min 50 sec) 
Heartbeat CPU 0 instructions: 49000002 cycles: 81192630 heartbeat IPC: 0.649912 cumulative IPC: 0.499846 (Simulation time: 1 hr 51 min 33 sec) 
Heartbeat CPU 0 instructions: 50000001 cycles: 82725703 heartbeat IPC: 0.652284 cumulative IPC: 0.502783 (Simulation time: 1 hr 54 min 10 sec) 
Heartbeat CPU 0 instructions: 51000000 cycles: 84258136 heartbeat IPC: 0.652556 cumulative IPC: 0.505614 (Simulation time: 1 hr 56 min 47 sec) 
Heartbeat CPU 0 instructions: 52000000 cycles: 85792444 heartbeat IPC: 0.65176 cumulative IPC: 0.508328 (Simulation time: 1 hr 59 min 15 sec) 
Heartbeat CPU 0 instructions: 53000002 cycles: 87329865 heartbeat IPC: 0.650441 cumulative IPC: 0.510924 (Simulation time: 2 hr 1 min 49 sec) 
Heartbeat CPU 0 instructions: 54000001 cycles: 88870863 heartbeat IPC: 0.648929 cumulative IPC: 0.513405 (Simulation time: 2 hr 4 min 13 sec) 
Heartbeat CPU 0 instructions: 55000000 cycles: 90413816 heartbeat IPC: 0.648107 cumulative IPC: 0.515787 (Simulation time: 2 hr 6 min 42 sec) 
Heartbeat CPU 0 instructions: 56000000 cycles: 91958418 heartbeat IPC: 0.647416 cumulative IPC: 0.518077 (Simulation time: 2 hr 9 min 18 sec) 
Heartbeat CPU 0 instructions: 57000000 cycles: 93501435 heartbeat IPC: 0.648081 cumulative IPC: 0.520298 (Simulation time: 2 hr 11 min 53 sec) 
Heartbeat CPU 0 instructions: 58000002 cycles: 95041107 heartbeat IPC: 0.64949 cumulative IPC: 0.522463 (Simulation time: 2 hr 14 min 24 sec) 
Heartbeat CPU 0 instructions: 59000001 cycles: 96576576 heartbeat IPC: 0.651266 cumulative IPC: 0.52458 (Simulation time: 2 hr 17 min 0 sec) 
Heartbeat CPU 0 instructions: 60000000 cycles: 98105651 heartbeat IPC: 0.653989 cumulative IPC: 0.526665 (Simulation time: 2 hr 19 min 28 sec) 
Heartbeat CPU 0 instructions: 61000003 cycles: 99632747 heartbeat IPC: 0.65484 cumulative IPC: 0.528694 (Simulation time: 2 hr 22 min 14 sec) 
Heartbeat CPU 0 instructions: 62000002 cycles: 101157940 heartbeat IPC: 0.655654 cumulative IPC: 0.53067 (Simulation time: 2 hr 24 min 38 sec) 
Heartbeat CPU 0 instructions: 63000001 cycles: 102681092 heartbeat IPC: 0.656533 cumulative IPC: 0.532596 (Simulation time: 2 hr 27 min 9 sec) 
Heartbeat CPU 0 instructions: 64000000 cycles: 104201463 heartbeat IPC: 0.657734 cumulative IPC: 0.534479 (Simulation time: 2 hr 29 min 43 sec) 
Heartbeat CPU 0 instructions: 65000001 cycles: 105722523 heartbeat IPC: 0.657437 cumulative IPC: 0.536303 (Simulation time: 2 hr 32 min 20 sec) 
Heartbeat CPU 0 instructions: 66000000 cycles: 107242419 heartbeat IPC: 0.657939 cumulative IPC: 0.538079 (Simulation time: 2 hr 34 min 57 sec) 
Heartbeat CPU 0 instructions: 67000001 cycles: 108740116 heartbeat IPC: 0.667692 cumulative IPC: 0.539918 (Simulation time: 2 hr 37 min 36 sec) 
Heartbeat CPU 0 instructions: 68000000 cycles: 110232163 heartbeat IPC: 0.670219 cumulative IPC: 0.541734 (Simulation time: 2 hr 40 min 3 sec) 
Heartbeat CPU 0 instructions: 69000002 cycles: 111724246 heartbeat IPC: 0.670205 cumulative IPC: 0.5435 (Simulation time: 2 hr 42 min 43 sec) 
Heartbeat CPU 0 instructions: 70000001 cycles: 113216930 heartbeat IPC: 0.669933 cumulative IPC: 0.545215 (Simulation time: 2 hr 45 min 16 sec) 
Heartbeat CPU 0 instructions: 71000003 cycles: 114767779 heartbeat IPC: 0.644809 cumulative IPC: 0.546599 (Simulation time: 2 hr 47 min 54 sec) 
Heartbeat CPU 0 instructions: 72000000 cycles: 117008084 heartbeat IPC: 0.446366 cumulative IPC: 0.544626 (Simulation time: 2 hr 50 min 19 sec) 
Heartbeat CPU 0 instructions: 73000000 cycles: 119276186 heartbeat IPC: 0.440897 cumulative IPC: 0.5426 (Simulation time: 2 hr 52 min 44 sec) 
Heartbeat CPU 0 instructions: 74000000 cycles: 121533063 heartbeat IPC: 0.44309 cumulative IPC: 0.540703 (Simulation time: 2 hr 55 min 9 sec) 
Heartbeat CPU 0 instructions: 75000000 cycles: 123806259 heartbeat IPC: 0.439909 cumulative IPC: 0.538803 (Simulation time: 2 hr 57 min 26 sec) 
Heartbeat CPU 0 instructions: 76000000 cycles: 126085771 heartbeat IPC: 0.43869 cumulative IPC: 0.536947 (Simulation time: 2 hr 59 min 56 sec) 
Heartbeat CPU 0 instructions: 77000001 cycles: 127712118 heartbeat IPC: 0.614876 cumulative IPC: 0.537964 (Simulation time: 3 hr 2 min 39 sec) 
Heartbeat CPU 0 instructions: 78000000 cycles: 129217241 heartbeat IPC: 0.664397 cumulative IPC: 0.539474 (Simulation time: 3 hr 5 min 20 sec) 
Heartbeat CPU 0 instructions: 79000001 cycles: 130724955 heartbeat IPC: 0.663256 cumulative IPC: 0.540937 (Simulation time: 3 hr 8 min 0 sec) 
Heartbeat CPU 0 instructions: 80000000 cycles: 132234776 heartbeat IPC: 0.662329 cumulative IPC: 0.542357 (Simulation time: 3 hr 10 min 39 sec) 
Heartbeat CPU 0 instructions: 81000002 cycles: 133842681 heartbeat IPC: 0.621929 cumulative IPC: 0.543336 (Simulation time: 3 hr 13 min 18 sec) 
Heartbeat CPU 0 instructions: 82000003 cycles: 136096604 heartbeat IPC: 0.443671 cumulative IPC: 0.541646 (Simulation time: 3 hr 15 min 39 sec) 
Heartbeat CPU 0 instructions: 83000000 cycles: 138388014 heartbeat IPC: 0.436411 cumulative IPC: 0.539863 (Simulation time: 3 hr 17 min 52 sec) 
Heartbeat CPU 0 instructions: 84000000 cycles: 140685929 heartbeat IPC: 0.435177 cumulative IPC: 0.538114 (Simulation time: 3 hr 20 min 0 sec) 
Heartbeat CPU 0 instructions: 85000002 cycles: 142987931 heartbeat IPC: 0.434405 cumulative IPC: 0.536406 (Simulation time: 3 hr 22 min 23 sec) 
Heartbeat CPU 0 instructions: 86000002 cycles: 145295250 heartbeat IPC: 0.433403 cumulative IPC: 0.534734 (Simulation time: 3 hr 24 min 50 sec) 
Heartbeat CPU 0 instructions: 87000002 cycles: 147153890 heartbeat IPC: 0.538028 cumulative IPC: 0.534777 (Simulation time: 3 hr 27 min 54 sec) 
Heartbeat CPU 0 instructions: 88000000 cycles: 148755876 heartbeat IPC: 0.624224 cumulative IPC: 0.535761 (Simulation time: 3 hr 30 min 45 sec) 
Heartbeat CPU 0 instructions: 89000000 cycles: 150356010 heartbeat IPC: 0.624948 cumulative IPC: 0.536731 (Simulation time: 3 hr 33 min 31 sec) 
Heartbeat CPU 0 instructions: 90000000 cycles: 152307654 heartbeat IPC: 0.512389 cumulative IPC: 0.536412 (Simulation time: 3 hr 36 min 18 sec) 
Heartbeat CPU 0 instructions: 91000001 cycles: 155224987 heartbeat IPC: 0.342779 cumulative IPC: 0.532697 (Simulation time: 3 hr 38 min 44 sec) 
Heartbeat CPU 0 instructions: 92000000 cycles: 158124732 heartbeat IPC: 0.344858 cumulative IPC: 0.529182 (Simulation time: 3 hr 41 min 10 sec) 
Heartbeat CPU 0 instructions: 93000001 cycles: 161033422 heartbeat IPC: 0.343798 cumulative IPC: 0.525766 (Simulation time: 3 hr 43 min 42 sec) 
Heartbeat CPU 0 instructions: 94000001 cycles: 163720413 heartbeat IPC: 0.372164 cumulative IPC: 0.523195 (Simulation time: 3 hr 46 min 2 sec) 
Heartbeat CPU 0 instructions: 95000000 cycles: 165299771 heartbeat IPC: 0.633168 cumulative IPC: 0.524267 (Simulation time: 3 hr 48 min 34 sec) 
Heartbeat CPU 0 instructions: 96000000 cycles: 166875410 heartbeat IPC: 0.634663 cumulative IPC: 0.525329 (Simulation time: 3 hr 51 min 20 sec) 
Heartbeat CPU 0 instructions: 97000002 cycles: 168454278 heartbeat IPC: 0.633366 cumulative IPC: 0.526361 (Simulation time: 3 hr 53 min 47 sec) 
Heartbeat CPU 0 instructions: 98000001 cycles: 170647771 heartbeat IPC: 0.455893 cumulative IPC: 0.525438 (Simulation time: 3 hr 56 min 9 sec) 
Heartbeat CPU 0 instructions: 99000003 cycles: 173541092 heartbeat IPC: 0.345624 cumulative IPC: 0.522385 (Simulation time: 3 hr 58 min 24 sec) 
Heartbeat CPU 0 instructions: 100000000 cycles: 176438420 heartbeat IPC: 0.345145 cumulative IPC: 0.519421 (Simulation time: 4 hr 0 min 31 sec) 
Heartbeat CPU 0 instructions: 101000000 cycles: 179349172 heartbeat IPC: 0.343554 cumulative IPC: 0.516515 (Simulation time: 4 hr 2 min 51 sec) 
Heartbeat CPU 0 instructions: 102000000 cycles: 181744287 heartbeat IPC: 0.417516 cumulative IPC: 0.515188 (Simulation time: 4 hr 5 min 22 sec) 
Heartbeat CPU 0 instructions: 103000002 cycles: 183235412 heartbeat IPC: 0.670636 cumulative IPC: 0.516475 (Simulation time: 4 hr 7 min 50 sec) 
Heartbeat CPU 0 instructions: 104000000 cycles: 184723648 heartbeat IPC: 0.671935 cumulative IPC: 0.517749 (Simulation time: 4 hr 10 min 10 sec) 
Heartbeat CPU 0 instructions: 105000000 cycles: 186209107 heartbeat IPC: 0.673193 cumulative IPC: 0.519011 (Simulation time: 4 hr 12 min 23 sec) 
Heartbeat CPU 0 instructions: 106000003 cycles: 187695258 heartbeat IPC: 0.672881 cumulative IPC: 0.52025 (Simulation time: 4 hr 14 min 33 sec) 
Heartbeat CPU 0 instructions: 107000000 cycles: 189894968 heartbeat IPC: 0.454604 cumulative IPC: 0.519477 (Simulation time: 4 hr 16 min 28 sec) 
Heartbeat CPU 0 instructions: 108000000 cycles: 192485732 heartbeat IPC: 0.385987 cumulative IPC: 0.51765 (Simulation time: 4 hr 18 min 17 sec) 
Heartbeat CPU 0 instructions: 109000002 cycles: 195084896 heartbeat IPC: 0.38474 cumulative IPC: 0.51585 (Simulation time: 4 hr 20 min 4 sec) 
Heartbeat CPU 0 instructions: 110000002 cycles: 197682723 heartbeat IPC: 0.384937 cumulative IPC: 0.514101 (Simulation time: 4 hr 21 min 47 sec) 
Finished CPU 0 instructions: 100000000 cycles: 194514159 cummulative IPC: 0.514101 (Simulation time: 4 hr 21 min 47 sec) 

ChampSim completed all CPUs

Region of Interest Statistics

CPU 0 cummulative IPC: 0.514101 instructions: 100000000 cycles: 194514159
LLC TOTAL     ACCESS:    3801551  HIT:     120715  MISS:    3680836
LLC LOAD      ACCESS:     656979  HIT:        530  MISS:     656449
LLC RFO       ACCESS:         20  HIT:          0  MISS:         20
LLC PREFETCH  ACCESS:    2132447  HIT:       1536  MISS:    2130911
LLC WRITEBACK ACCESS:    1012105  HIT:     118649  MISS:     893456
Insertion Distribution: 
	LOAD 0 0 72764 587830 
	RFO 0 0 24 0 
	PREF 0 0 267648 2123188 
	WRITEBACK 0 0 0 1003036 
Total Prefetch Downgrades: 335
