
*** ChampSim Multicore Out-of-Order Simulator ***

Warmup Instructions: 10000000
Simulation Instructions: 100000000
Configuration: 2
Number of CPUs: 1
LLC sets: 2048
LLC ways: 16
Off-chip DRAM Channels: 1 Width: 64-bit Data Rate: 1600 MT/s

CPU 0 runs /datasets/cs240c-wi22-a00-public/data/Assignment2-gz/leslie3d_94B.trace.gz
CPU 0 L1D next line prefetcher
CPU 0 L2C IP-based stride prefetcher
Initialize SRRIP state
Heartbeat CPU 0 instructions: 1000003 cycles: 597056 heartbeat IPC: 1.67489 cumulative IPC: 1.67489 (Simulation time: 0 hr 3 min 19 sec) 
Heartbeat CPU 0 instructions: 2000002 cycles: 1215909 heartbeat IPC: 1.61589 cumulative IPC: 1.64486 (Simulation time: 0 hr 6 min 37 sec) 
Heartbeat CPU 0 instructions: 3000003 cycles: 1867672 heartbeat IPC: 1.5343 cumulative IPC: 1.60628 (Simulation time: 0 hr 10 min 4 sec) 
Heartbeat CPU 0 instructions: 4000000 cycles: 2518899 heartbeat IPC: 1.53556 cumulative IPC: 1.588 (Simulation time: 0 hr 13 min 32 sec) 
Heartbeat CPU 0 instructions: 5000002 cycles: 3083891 heartbeat IPC: 1.76994 cumulative IPC: 1.62133 (Simulation time: 0 hr 16 min 41 sec) 
Heartbeat CPU 0 instructions: 6000002 cycles: 3734514 heartbeat IPC: 1.53699 cumulative IPC: 1.60664 (Simulation time: 0 hr 20 min 1 sec) 
Heartbeat CPU 0 instructions: 7000000 cycles: 4385218 heartbeat IPC: 1.53679 cumulative IPC: 1.59627 (Simulation time: 0 hr 23 min 44 sec) 
Heartbeat CPU 0 instructions: 8000000 cycles: 4950231 heartbeat IPC: 1.76987 cumulative IPC: 1.61609 (Simulation time: 0 hr 26 min 46 sec) 
Heartbeat CPU 0 instructions: 9000000 cycles: 5601087 heartbeat IPC: 1.53644 cumulative IPC: 1.60683 (Simulation time: 0 hr 29 min 58 sec) 
Heartbeat CPU 0 instructions: 10000001 cycles: 6252266 heartbeat IPC: 1.53568 cumulative IPC: 1.59942 (Simulation time: 0 hr 33 min 10 sec) 

Warmup complete CPU 0 instructions: 10000001 cycles: 6252266 (Simulation time: 0 hr 33 min 10 sec) 

Heartbeat CPU 0 instructions: 11000000 cycles: 7487737 heartbeat IPC: 0.809407 cumulative IPC: 0.809407 (Simulation time: 0 hr 36 min 24 sec) 
Heartbeat CPU 0 instructions: 12000000 cycles: 9245081 heartbeat IPC: 0.569041 cumulative IPC: 0.668267 (Simulation time: 0 hr 39 min 52 sec) 
Heartbeat CPU 0 instructions: 13000000 cycles: 10970675 heartbeat IPC: 0.579511 cumulative IPC: 0.635807 (Simulation time: 0 hr 43 min 27 sec) 
Heartbeat CPU 0 instructions: 14000001 cycles: 12822009 heartbeat IPC: 0.540152 cumulative IPC: 0.608852 (Simulation time: 0 hr 47 min 2 sec) 
Heartbeat CPU 0 instructions: 15000001 cycles: 14513901 heartbeat IPC: 0.591054 cumulative IPC: 0.605207 (Simulation time: 0 hr 50 min 22 sec) 
Heartbeat CPU 0 instructions: 16000000 cycles: 16305053 heartbeat IPC: 0.558299 cumulative IPC: 0.596849 (Simulation time: 0 hr 53 min 43 sec) 
Heartbeat CPU 0 instructions: 17000000 cycles: 18011411 heartbeat IPC: 0.586043 cumulative IPC: 0.595281 (Simulation time: 0 hr 57 min 12 sec) 
Heartbeat CPU 0 instructions: 18000002 cycles: 19889147 heartbeat IPC: 0.532557 cumulative IPC: 0.586644 (Simulation time: 1 hr 0 min 52 sec) 
Heartbeat CPU 0 instructions: 19000001 cycles: 21668417 heartbeat IPC: 0.562028 cumulative IPC: 0.583803 (Simulation time: 1 hr 4 min 30 sec) 
Heartbeat CPU 0 instructions: 20000000 cycles: 23421670 heartbeat IPC: 0.570368 cumulative IPC: 0.582431 (Simulation time: 1 hr 7 min 53 sec) 
Heartbeat CPU 0 instructions: 21000002 cycles: 25060384 heartbeat IPC: 0.610236 cumulative IPC: 0.584854 (Simulation time: 1 hr 11 min 21 sec) 
Heartbeat CPU 0 instructions: 22000002 cycles: 27369313 heartbeat IPC: 0.433101 cumulative IPC: 0.568261 (Simulation time: 1 hr 14 min 52 sec) 
Heartbeat CPU 0 instructions: 23000000 cycles: 29682192 heartbeat IPC: 0.432361 cumulative IPC: 0.554846 (Simulation time: 1 hr 18 min 24 sec) 
Heartbeat CPU 0 instructions: 24000000 cycles: 32031112 heartbeat IPC: 0.425728 cumulative IPC: 0.543081 (Simulation time: 1 hr 21 min 49 sec) 
Heartbeat CPU 0 instructions: 25000000 cycles: 34398334 heartbeat IPC: 0.422436 cumulative IPC: 0.532934 (Simulation time: 1 hr 25 min 22 sec) 
Heartbeat CPU 0 instructions: 26000002 cycles: 36674179 heartbeat IPC: 0.439398 cumulative IPC: 0.525937 (Simulation time: 1 hr 29 min 22 sec) 
Heartbeat CPU 0 instructions: 27000001 cycles: 39018535 heartbeat IPC: 0.426556 cumulative IPC: 0.518826 (Simulation time: 1 hr 33 min 38 sec) 
Heartbeat CPU 0 instructions: 28000000 cycles: 41373081 heartbeat IPC: 0.42471 cumulative IPC: 0.512517 (Simulation time: 1 hr 37 min 35 sec) 
Heartbeat CPU 0 instructions: 29000000 cycles: 43691919 heartbeat IPC: 0.43125 cumulative IPC: 0.507483 (Simulation time: 1 hr 41 min 42 sec) 
Heartbeat CPU 0 instructions: 30000000 cycles: 45048598 heartbeat IPC: 0.737094 cumulative IPC: 0.515513 (Simulation time: 1 hr 44 min 48 sec) 
Heartbeat CPU 0 instructions: 31000002 cycles: 46286814 heartbeat IPC: 0.807615 cumulative IPC: 0.524547 (Simulation time: 1 hr 47 min 42 sec) 
Heartbeat CPU 0 instructions: 32000000 cycles: 47554488 heartbeat IPC: 0.788845 cumulative IPC: 0.532659 (Simulation time: 1 hr 50 min 43 sec) 
Heartbeat CPU 0 instructions: 33000001 cycles: 48799066 heartbeat IPC: 0.803486 cumulative IPC: 0.540581 (Simulation time: 1 hr 53 min 48 sec) 
Heartbeat CPU 0 instructions: 34000003 cycles: 50081321 heartbeat IPC: 0.779878 cumulative IPC: 0.547582 (Simulation time: 1 hr 57 min 3 sec) 
Heartbeat CPU 0 instructions: 35000001 cycles: 51333941 heartbeat IPC: 0.798325 cumulative IPC: 0.554549 (Simulation time: 2 hr 0 min 2 sec) 
Heartbeat CPU 0 instructions: 36000000 cycles: 52640759 heartbeat IPC: 0.765217 cumulative IPC: 0.560484 (Simulation time: 2 hr 2 min 42 sec) 
Heartbeat CPU 0 instructions: 37000003 cycles: 53898580 heartbeat IPC: 0.795028 cumulative IPC: 0.566676 (Simulation time: 2 hr 5 min 29 sec) 
Heartbeat CPU 0 instructions: 38000000 cycles: 55163154 heartbeat IPC: 0.790778 cumulative IPC: 0.57247 (Simulation time: 2 hr 8 min 21 sec) 
Heartbeat CPU 0 instructions: 39000002 cycles: 56438930 heartbeat IPC: 0.783838 cumulative IPC: 0.577843 (Simulation time: 2 hr 11 min 11 sec) 
Heartbeat CPU 0 instructions: 40000000 cycles: 57679291 heartbeat IPC: 0.806215 cumulative IPC: 0.583351 (Simulation time: 2 hr 13 min 54 sec) 
Heartbeat CPU 0 instructions: 41000002 cycles: 58981357 heartbeat IPC: 0.768012 cumulative IPC: 0.587911 (Simulation time: 2 hr 17 min 2 sec) 
Heartbeat CPU 0 instructions: 42000002 cycles: 60235281 heartbeat IPC: 0.797496 cumulative IPC: 0.592779 (Simulation time: 2 hr 20 min 0 sec) 
Heartbeat CPU 0 instructions: 43000002 cycles: 61536006 heartbeat IPC: 0.768802 cumulative IPC: 0.596921 (Simulation time: 2 hr 22 min 45 sec) 
Heartbeat CPU 0 instructions: 44000000 cycles: 62796773 heartbeat IPC: 0.793166 cumulative IPC: 0.601296 (Simulation time: 2 hr 25 min 31 sec) 
Heartbeat CPU 0 instructions: 45000003 cycles: 64071454 heartbeat IPC: 0.784512 cumulative IPC: 0.605335 (Simulation time: 2 hr 28 min 12 sec) 
Heartbeat CPU 0 instructions: 46000001 cycles: 65385449 heartbeat IPC: 0.761036 cumulative IPC: 0.608795 (Simulation time: 2 hr 30 min 54 sec) 
Heartbeat CPU 0 instructions: 47000000 cycles: 66647823 heartbeat IPC: 0.792157 cumulative IPC: 0.612628 (Simulation time: 2 hr 33 min 34 sec) 
Heartbeat CPU 0 instructions: 48000000 cycles: 67974069 heartbeat IPC: 0.754008 cumulative IPC: 0.615666 (Simulation time: 2 hr 36 min 17 sec) 
Heartbeat CPU 0 instructions: 49000001 cycles: 69241893 heartbeat IPC: 0.788754 cumulative IPC: 0.61915 (Simulation time: 2 hr 39 min 9 sec) 
Heartbeat CPU 0 instructions: 50000001 cycles: 70543070 heartbeat IPC: 0.768535 cumulative IPC: 0.622173 (Simulation time: 2 hr 41 min 53 sec) 
Heartbeat CPU 0 instructions: 51000003 cycles: 71812978 heartbeat IPC: 0.78746 cumulative IPC: 0.625375 (Simulation time: 2 hr 44 min 48 sec) 
Heartbeat CPU 0 instructions: 52000000 cycles: 73069365 heartbeat IPC: 0.795931 cumulative IPC: 0.628582 (Simulation time: 2 hr 47 min 33 sec) 
Heartbeat CPU 0 instructions: 53000002 cycles: 74373661 heartbeat IPC: 0.766699 cumulative IPC: 0.631226 (Simulation time: 2 hr 50 min 24 sec) 
Heartbeat CPU 0 instructions: 54000001 cycles: 75626749 heartbeat IPC: 0.798028 cumulative IPC: 0.634239 (Simulation time: 2 hr 53 min 11 sec) 
Heartbeat CPU 0 instructions: 55000000 cycles: 76927473 heartbeat IPC: 0.768802 cumulative IPC: 0.636715 (Simulation time: 2 hr 56 min 19 sec) 
Heartbeat CPU 0 instructions: 56000000 cycles: 78217484 heartbeat IPC: 0.775187 cumulative IPC: 0.639198 (Simulation time: 2 hr 59 min 35 sec) 
Heartbeat CPU 0 instructions: 57000000 cycles: 79520900 heartbeat IPC: 0.767215 cumulative IPC: 0.641475 (Simulation time: 3 hr 2 min 54 sec) 
Heartbeat CPU 0 instructions: 58000001 cycles: 80793488 heartbeat IPC: 0.785801 cumulative IPC: 0.643939 (Simulation time: 3 hr 6 min 12 sec) 
Heartbeat CPU 0 instructions: 59000000 cycles: 82045728 heartbeat IPC: 0.798568 cumulative IPC: 0.646494 (Simulation time: 3 hr 9 min 7 sec) 
Heartbeat CPU 0 instructions: 60000000 cycles: 83337509 heartbeat IPC: 0.774125 cumulative IPC: 0.648633 (Simulation time: 3 hr 12 min 6 sec) 
Heartbeat CPU 0 instructions: 61000001 cycles: 84612054 heartbeat IPC: 0.784594 cumulative IPC: 0.650844 (Simulation time: 3 hr 15 min 1 sec) 
Heartbeat CPU 0 instructions: 62000000 cycles: 85895739 heartbeat IPC: 0.779007 cumulative IPC: 0.65291 (Simulation time: 3 hr 17 min 48 sec) 
Heartbeat CPU 0 instructions: 63000001 cycles: 87161251 heartbeat IPC: 0.790195 cumulative IPC: 0.655057 (Simulation time: 3 hr 20 min 32 sec) 
Heartbeat CPU 0 instructions: 64000000 cycles: 88448173 heartbeat IPC: 0.777047 cumulative IPC: 0.656967 (Simulation time: 3 hr 23 min 15 sec) 
Heartbeat CPU 0 instructions: 65000000 cycles: 89732290 heartbeat IPC: 0.778745 cumulative IPC: 0.65884 (Simulation time: 3 hr 26 min 3 sec) 
Heartbeat CPU 0 instructions: 66000000 cycles: 91012014 heartbeat IPC: 0.781419 cumulative IPC: 0.660691 (Simulation time: 3 hr 28 min 51 sec) 
Heartbeat CPU 0 instructions: 67000003 cycles: 92291971 heartbeat IPC: 0.781279 cumulative IPC: 0.662485 (Simulation time: 3 hr 31 min 37 sec) 
Heartbeat CPU 0 instructions: 68000000 cycles: 93568372 heartbeat IPC: 0.78345 cumulative IPC: 0.664253 (Simulation time: 3 hr 34 min 34 sec) 
Heartbeat CPU 0 instructions: 69000000 cycles: 94859506 heartbeat IPC: 0.774513 cumulative IPC: 0.66586 (Simulation time: 3 hr 37 min 19 sec) 
Heartbeat CPU 0 instructions: 70000001 cycles: 96128323 heartbeat IPC: 0.788136 cumulative IPC: 0.667586 (Simulation time: 3 hr 40 min 22 sec) 
Heartbeat CPU 0 instructions: 71000002 cycles: 97427837 heartbeat IPC: 0.769519 cumulative IPC: 0.669039 (Simulation time: 3 hr 43 min 13 sec) 
Heartbeat CPU 0 instructions: 72000000 cycles: 98678391 heartbeat IPC: 0.799644 cumulative IPC: 0.670806 (Simulation time: 3 hr 46 min 13 sec) 
Heartbeat CPU 0 instructions: 73000000 cycles: 99964854 heartbeat IPC: 0.777325 cumulative IPC: 0.672268 (Simulation time: 3 hr 48 min 48 sec) 
Heartbeat CPU 0 instructions: 74000000 cycles: 101239044 heartbeat IPC: 0.784812 cumulative IPC: 0.673778 (Simulation time: 3 hr 51 min 26 sec) 
Heartbeat CPU 0 instructions: 75000002 cycles: 102503821 heartbeat IPC: 0.790655 cumulative IPC: 0.675314 (Simulation time: 3 hr 54 min 17 sec) 
Heartbeat CPU 0 instructions: 76000000 cycles: 103805918 heartbeat IPC: 0.76799 cumulative IPC: 0.676551 (Simulation time: 3 hr 57 min 9 sec) 
Heartbeat CPU 0 instructions: 77000000 cycles: 105074321 heartbeat IPC: 0.788393 cumulative IPC: 0.677986 (Simulation time: 3 hr 59 min 58 sec) 
Heartbeat CPU 0 instructions: 78000003 cycles: 106390820 heartbeat IPC: 0.759593 cumulative IPC: 0.679059 (Simulation time: 4 hr 2 min 32 sec) 
Heartbeat CPU 0 instructions: 79000000 cycles: 107833786 heartbeat IPC: 0.693015 cumulative IPC: 0.679257 (Simulation time: 4 hr 5 min 3 sec) 
Heartbeat CPU 0 instructions: 80000000 cycles: 109472268 heartbeat IPC: 0.610321 cumulative IPC: 0.678163 (Simulation time: 4 hr 7 min 45 sec) 
Heartbeat CPU 0 instructions: 81000002 cycles: 111086700 heartbeat IPC: 0.619414 cumulative IPC: 0.677258 (Simulation time: 4 hr 10 min 27 sec) 
Heartbeat CPU 0 instructions: 82000003 cycles: 112756670 heartbeat IPC: 0.598814 cumulative IPC: 0.676028 (Simulation time: 4 hr 12 min 54 sec) 
Heartbeat CPU 0 instructions: 83000000 cycles: 114437306 heartbeat IPC: 0.595011 cumulative IPC: 0.67477 (Simulation time: 4 hr 15 min 25 sec) 
Heartbeat CPU 0 instructions: 84000000 cycles: 116065274 heartbeat IPC: 0.614263 cumulative IPC: 0.673873 (Simulation time: 4 hr 17 min 54 sec) 
Heartbeat CPU 0 instructions: 85000001 cycles: 117718759 heartbeat IPC: 0.604784 cumulative IPC: 0.672848 (Simulation time: 4 hr 20 min 26 sec) 
Heartbeat CPU 0 instructions: 86000002 cycles: 119350923 heartbeat IPC: 0.612684 cumulative IPC: 0.67198 (Simulation time: 4 hr 22 min 47 sec) 
Heartbeat CPU 0 instructions: 87000000 cycles: 120994080 heartbeat IPC: 0.608583 cumulative IPC: 0.671072 (Simulation time: 4 hr 24 min 56 sec) 
Heartbeat CPU 0 instructions: 88000000 cycles: 122666377 heartbeat IPC: 0.59798 cumulative IPC: 0.670022 (Simulation time: 4 hr 27 min 3 sec) 
Heartbeat CPU 0 instructions: 89000002 cycles: 124300542 heartbeat IPC: 0.611935 cumulative IPC: 0.669218 (Simulation time: 4 hr 29 min 0 sec) 
Heartbeat CPU 0 instructions: 90000001 cycles: 125939917 heartbeat IPC: 0.609988 cumulative IPC: 0.668406 (Simulation time: 4 hr 30 min 46 sec) 
Heartbeat CPU 0 instructions: 91000003 cycles: 127582906 heartbeat IPC: 0.608648 cumulative IPC: 0.667597 (Simulation time: 4 hr 32 min 28 sec) 
Heartbeat CPU 0 instructions: 92000000 cycles: 129234934 heartbeat IPC: 0.605315 cumulative IPC: 0.666761 (Simulation time: 4 hr 34 min 13 sec) 
Heartbeat CPU 0 instructions: 93000001 cycles: 130917067 heartbeat IPC: 0.594484 cumulative IPC: 0.665785 (Simulation time: 4 hr 35 min 52 sec) 
Heartbeat CPU 0 instructions: 94000003 cycles: 132577241 heartbeat IPC: 0.602348 cumulative IPC: 0.664952 (Simulation time: 4 hr 37 min 27 sec) 
Heartbeat CPU 0 instructions: 95000002 cycles: 134286474 heartbeat IPC: 0.585057 cumulative IPC: 0.663885 (Simulation time: 4 hr 39 min 2 sec) 
Heartbeat CPU 0 instructions: 96000000 cycles: 135936255 heartbeat IPC: 0.60614 cumulative IPC: 0.66315 (Simulation time: 4 hr 40 min 33 sec) 
Heartbeat CPU 0 instructions: 97000003 cycles: 137915649 heartbeat IPC: 0.505207 cumulative IPC: 0.660776 (Simulation time: 4 hr 42 min 5 sec) 
Heartbeat CPU 0 instructions: 98000002 cycles: 143169005 heartbeat IPC: 0.190354 cumulative IPC: 0.642726 (Simulation time: 4 hr 44 min 45 sec) 
Heartbeat CPU 0 instructions: 99000000 cycles: 146149685 heartbeat IPC: 0.335493 cumulative IPC: 0.63618 (Simulation time: 4 hr 46 min 36 sec) 
Heartbeat CPU 0 instructions: 100000000 cycles: 147821873 heartbeat IPC: 0.598019 cumulative IPC: 0.63573 (Simulation time: 4 hr 47 min 34 sec) 
Heartbeat CPU 0 instructions: 101000002 cycles: 149080167 heartbeat IPC: 0.794728 cumulative IPC: 0.63713 (Simulation time: 4 hr 48 min 24 sec) 
Heartbeat CPU 0 instructions: 102000003 cycles: 150419525 heartbeat IPC: 0.746627 cumulative IPC: 0.638148 (Simulation time: 4 hr 49 min 8 sec) 
Heartbeat CPU 0 instructions: 103000002 cycles: 151826361 heartbeat IPC: 0.710814 cumulative IPC: 0.63885 (Simulation time: 4 hr 49 min 55 sec) 
Heartbeat CPU 0 instructions: 104000000 cycles: 153318926 heartbeat IPC: 0.669986 cumulative IPC: 0.639166 (Simulation time: 4 hr 50 min 40 sec) 
Heartbeat CPU 0 instructions: 105000001 cycles: 154840407 heartbeat IPC: 0.657255 cumulative IPC: 0.639351 (Simulation time: 4 hr 51 min 21 sec) 
Heartbeat CPU 0 instructions: 106000001 cycles: 156385781 heartbeat IPC: 0.647093 cumulative IPC: 0.639431 (Simulation time: 4 hr 52 min 3 sec) 
Heartbeat CPU 0 instructions: 107000001 cycles: 157933944 heartbeat IPC: 0.645927 cumulative IPC: 0.639497 (Simulation time: 4 hr 52 min 40 sec) 
Heartbeat CPU 0 instructions: 108000000 cycles: 159494438 heartbeat IPC: 0.640822 cumulative IPC: 0.639511 (Simulation time: 4 hr 53 min 15 sec) 
Heartbeat CPU 0 instructions: 109000001 cycles: 161035898 heartbeat IPC: 0.648736 cumulative IPC: 0.639603 (Simulation time: 4 hr 53 min 47 sec) 
Heartbeat CPU 0 instructions: 110000001 cycles: 162583758 heartbeat IPC: 0.646053 cumulative IPC: 0.639666 (Simulation time: 4 hr 54 min 23 sec) 
Finished CPU 0 instructions: 100000000 cycles: 156331492 cummulative IPC: 0.639666 (Simulation time: 4 hr 54 min 23 sec) 

ChampSim completed all CPUs

Region of Interest Statistics

CPU 0 cummulative IPC: 0.639666 instructions: 100000000 cycles: 156331492
LLC TOTAL     ACCESS:    4600310  HIT:    1195649  MISS:    3404661
LLC LOAD      ACCESS:     466425  HIT:     137709  MISS:     328716
LLC RFO       ACCESS:     743205  HIT:      95820  MISS:     647385
LLC PREFETCH  ACCESS:    2290390  HIT:     537175  MISS:    1753215
LLC WRITEBACK ACCESS:    1100290  HIT:     424945  MISS:     675345
Insertion Distribution: 
	LOAD 30645 0 94440 207187 
	RFO 301 0 128980 520717 
	PREF 0 107481 483461 1336494 
	WRITEBACK 0 0 0 694976 
Total Prefetch Downgrades: 97212
