
*** ChampSim Multicore Out-of-Order Simulator ***

Warmup Instructions: 10000000
Simulation Instructions: 100000000
Configuration: 2
Number of CPUs: 1
LLC sets: 2048
LLC ways: 16
Off-chip DRAM Channels: 1 Width: 64-bit Data Rate: 1600 MT/s

CPU 0 runs /datasets/cs240c-wi22-a00-public/data/Assignment2-gz/libquantum_964B.trace.gz
CPU 0 L1D next line prefetcher
CPU 0 L2C IP-based stride prefetcher
Initialize SRRIP state
Heartbeat CPU 0 instructions: 1000002 cycles: 333341 heartbeat IPC: 2.99994 cumulative IPC: 2.99994 (Simulation time: 0 hr 1 min 45 sec) 
Heartbeat CPU 0 instructions: 2000001 cycles: 666674 heartbeat IPC: 3 cumulative IPC: 2.99997 (Simulation time: 0 hr 3 min 26 sec) 
Heartbeat CPU 0 instructions: 3000000 cycles: 1000007 heartbeat IPC: 3 cumulative IPC: 2.99998 (Simulation time: 0 hr 5 min 11 sec) 
Heartbeat CPU 0 instructions: 4000000 cycles: 1333341 heartbeat IPC: 2.99999 cumulative IPC: 2.99998 (Simulation time: 0 hr 6 min 56 sec) 
Heartbeat CPU 0 instructions: 5000000 cycles: 1666674 heartbeat IPC: 3 cumulative IPC: 2.99999 (Simulation time: 0 hr 8 min 47 sec) 
Heartbeat CPU 0 instructions: 6000002 cycles: 2000008 heartbeat IPC: 3 cumulative IPC: 2.99999 (Simulation time: 0 hr 10 min 34 sec) 
Heartbeat CPU 0 instructions: 7000001 cycles: 2331518 heartbeat IPC: 3.0165 cumulative IPC: 3.00234 (Simulation time: 0 hr 12 min 16 sec) 
Heartbeat CPU 0 instructions: 8000000 cycles: 2662240 heartbeat IPC: 3.02368 cumulative IPC: 3.00499 (Simulation time: 0 hr 14 min 3 sec) 
Heartbeat CPU 0 instructions: 9000001 cycles: 2992962 heartbeat IPC: 3.02369 cumulative IPC: 3.00705 (Simulation time: 0 hr 15 min 46 sec) 
Heartbeat CPU 0 instructions: 10000001 cycles: 3323684 heartbeat IPC: 3.02369 cumulative IPC: 3.00871 (Simulation time: 0 hr 17 min 21 sec) 

Warmup complete CPU 0 instructions: 10000001 cycles: 3323684 (Simulation time: 0 hr 17 min 21 sec) 

Heartbeat CPU 0 instructions: 11000000 cycles: 5053312 heartbeat IPC: 0.578158 cumulative IPC: 0.578158 (Simulation time: 0 hr 19 min 45 sec) 
Heartbeat CPU 0 instructions: 12000000 cycles: 6798274 heartbeat IPC: 0.573078 cumulative IPC: 0.575607 (Simulation time: 0 hr 22 min 15 sec) 
Heartbeat CPU 0 instructions: 13000001 cycles: 8538224 heartbeat IPC: 0.57473 cumulative IPC: 0.575314 (Simulation time: 0 hr 24 min 49 sec) 
Heartbeat CPU 0 instructions: 14000000 cycles: 10275331 heartbeat IPC: 0.575669 cumulative IPC: 0.575403 (Simulation time: 0 hr 27 min 17 sec) 
Heartbeat CPU 0 instructions: 15000003 cycles: 12016722 heartbeat IPC: 0.574255 cumulative IPC: 0.575173 (Simulation time: 0 hr 29 min 49 sec) 
Heartbeat CPU 0 instructions: 16000000 cycles: 13749179 heartbeat IPC: 0.577213 cumulative IPC: 0.575512 (Simulation time: 0 hr 32 min 19 sec) 
Heartbeat CPU 0 instructions: 17000000 cycles: 15497367 heartbeat IPC: 0.572021 cumulative IPC: 0.575011 (Simulation time: 0 hr 34 min 40 sec) 
Heartbeat CPU 0 instructions: 18000003 cycles: 17231284 heartbeat IPC: 0.576731 cumulative IPC: 0.575225 (Simulation time: 0 hr 37 min 12 sec) 
Heartbeat CPU 0 instructions: 19000002 cycles: 18976507 heartbeat IPC: 0.572992 cumulative IPC: 0.574976 (Simulation time: 0 hr 39 min 47 sec) 
Heartbeat CPU 0 instructions: 20000000 cycles: 20716528 heartbeat IPC: 0.574705 cumulative IPC: 0.574949 (Simulation time: 0 hr 42 min 17 sec) 
Heartbeat CPU 0 instructions: 21000003 cycles: 22459220 heartbeat IPC: 0.573827 cumulative IPC: 0.574847 (Simulation time: 0 hr 44 min 54 sec) 
Heartbeat CPU 0 instructions: 22000002 cycles: 24203791 heartbeat IPC: 0.573206 cumulative IPC: 0.57471 (Simulation time: 0 hr 47 min 27 sec) 
Heartbeat CPU 0 instructions: 23000000 cycles: 25940563 heartbeat IPC: 0.57578 cumulative IPC: 0.574792 (Simulation time: 0 hr 50 min 1 sec) 
Heartbeat CPU 0 instructions: 24000000 cycles: 27692722 heartbeat IPC: 0.570724 cumulative IPC: 0.574499 (Simulation time: 0 hr 52 min 18 sec) 
Heartbeat CPU 0 instructions: 25000000 cycles: 29433690 heartbeat IPC: 0.574393 cumulative IPC: 0.574492 (Simulation time: 0 hr 54 min 35 sec) 
Heartbeat CPU 0 instructions: 26000002 cycles: 31293778 heartbeat IPC: 0.53761 cumulative IPC: 0.57204 (Simulation time: 0 hr 57 min 17 sec) 
Heartbeat CPU 0 instructions: 27000002 cycles: 33652094 heartbeat IPC: 0.424031 cumulative IPC: 0.560531 (Simulation time: 1 hr 0 min 10 sec) 
Heartbeat CPU 0 instructions: 28000000 cycles: 36034391 heartbeat IPC: 0.419762 cumulative IPC: 0.550278 (Simulation time: 1 hr 3 min 7 sec) 
Heartbeat CPU 0 instructions: 29000002 cycles: 38445541 heartbeat IPC: 0.414741 cumulative IPC: 0.540974 (Simulation time: 1 hr 6 min 16 sec) 
Heartbeat CPU 0 instructions: 30000002 cycles: 40861149 heartbeat IPC: 0.413974 cumulative IPC: 0.532801 (Simulation time: 1 hr 9 min 8 sec) 
Heartbeat CPU 0 instructions: 31000002 cycles: 43286660 heartbeat IPC: 0.412284 cumulative IPC: 0.525486 (Simulation time: 1 hr 12 min 5 sec) 
Heartbeat CPU 0 instructions: 32000000 cycles: 45693998 heartbeat IPC: 0.415396 cumulative IPC: 0.519231 (Simulation time: 1 hr 15 min 0 sec) 
Heartbeat CPU 0 instructions: 33000002 cycles: 48110641 heartbeat IPC: 0.413798 cumulative IPC: 0.513542 (Simulation time: 1 hr 18 min 15 sec) 
Heartbeat CPU 0 instructions: 34000002 cycles: 50529157 heartbeat IPC: 0.413477 cumulative IPC: 0.508416 (Simulation time: 1 hr 21 min 4 sec) 
Heartbeat CPU 0 instructions: 35000002 cycles: 52945045 heartbeat IPC: 0.413926 cumulative IPC: 0.503815 (Simulation time: 1 hr 24 min 17 sec) 
Heartbeat CPU 0 instructions: 36000000 cycles: 55254817 heartbeat IPC: 0.432942 cumulative IPC: 0.500663 (Simulation time: 1 hr 27 min 26 sec) 
Heartbeat CPU 0 instructions: 37000001 cycles: 56783813 heartbeat IPC: 0.654025 cumulative IPC: 0.505049 (Simulation time: 1 hr 30 min 10 sec) 
Heartbeat CPU 0 instructions: 38000000 cycles: 58300764 heartbeat IPC: 0.659216 cumulative IPC: 0.509303 (Simulation time: 1 hr 32 min 52 sec) 
Heartbeat CPU 0 instructions: 39000003 cycles: 59815038 heartbeat IPC: 0.660384 cumulative IPC: 0.513353 (Simulation time: 1 hr 35 min 20 sec) 
Heartbeat CPU 0 instructions: 40000000 cycles: 61326076 heartbeat IPC: 0.661795 cumulative IPC: 0.51722 (Simulation time: 1 hr 37 min 49 sec) 
Heartbeat CPU 0 instructions: 41000001 cycles: 62840196 heartbeat IPC: 0.66045 cumulative IPC: 0.520864 (Simulation time: 1 hr 40 min 34 sec) 
Heartbeat CPU 0 instructions: 42000000 cycles: 64353625 heartbeat IPC: 0.660751 cumulative IPC: 0.524333 (Simulation time: 1 hr 43 min 11 sec) 
Heartbeat CPU 0 instructions: 43000001 cycles: 65862793 heartbeat IPC: 0.662617 cumulative IPC: 0.52767 (Simulation time: 1 hr 45 min 52 sec) 
Heartbeat CPU 0 instructions: 44000000 cycles: 67370801 heartbeat IPC: 0.663126 cumulative IPC: 0.530859 (Simulation time: 1 hr 48 min 38 sec) 
Heartbeat CPU 0 instructions: 45000002 cycles: 68873676 heartbeat IPC: 0.665393 cumulative IPC: 0.533944 (Simulation time: 1 hr 51 min 21 sec) 
Heartbeat CPU 0 instructions: 46000001 cycles: 70372010 heartbeat IPC: 0.667407 cumulative IPC: 0.536926 (Simulation time: 1 hr 54 min 27 sec) 
Heartbeat CPU 0 instructions: 47000000 cycles: 71860160 heartbeat IPC: 0.671975 cumulative IPC: 0.539859 (Simulation time: 1 hr 57 min 24 sec) 
Heartbeat CPU 0 instructions: 48000000 cycles: 73342351 heartbeat IPC: 0.674677 cumulative IPC: 0.542712 (Simulation time: 2 hr 0 min 19 sec) 
Heartbeat CPU 0 instructions: 49000002 cycles: 74819519 heartbeat IPC: 0.676972 cumulative IPC: 0.545486 (Simulation time: 2 hr 2 min 59 sec) 
Heartbeat CPU 0 instructions: 50000001 cycles: 76292501 heartbeat IPC: 0.678894 cumulative IPC: 0.548179 (Simulation time: 2 hr 5 min 51 sec) 
Heartbeat CPU 0 instructions: 51000000 cycles: 77762136 heartbeat IPC: 0.68044 cumulative IPC: 0.550791 (Simulation time: 2 hr 8 min 41 sec) 
Heartbeat CPU 0 instructions: 52000000 cycles: 79231742 heartbeat IPC: 0.680454 cumulative IPC: 0.553301 (Simulation time: 2 hr 11 min 25 sec) 
Heartbeat CPU 0 instructions: 53000000 cycles: 80699091 heartbeat IPC: 0.681501 cumulative IPC: 0.555732 (Simulation time: 2 hr 14 min 11 sec) 
Heartbeat CPU 0 instructions: 54000002 cycles: 82165603 heartbeat IPC: 0.681891 cumulative IPC: 0.558079 (Simulation time: 2 hr 16 min 57 sec) 
Heartbeat CPU 0 instructions: 55000002 cycles: 83707111 heartbeat IPC: 0.648715 cumulative IPC: 0.559817 (Simulation time: 2 hr 19 min 36 sec) 
Heartbeat CPU 0 instructions: 56000000 cycles: 85448552 heartbeat IPC: 0.574236 cumulative IPC: 0.560123 (Simulation time: 2 hr 22 min 4 sec) 
Heartbeat CPU 0 instructions: 57000001 cycles: 87194581 heartbeat IPC: 0.572729 cumulative IPC: 0.560385 (Simulation time: 2 hr 24 min 37 sec) 
Heartbeat CPU 0 instructions: 58000000 cycles: 88937190 heartbeat IPC: 0.573852 cumulative IPC: 0.560659 (Simulation time: 2 hr 27 min 15 sec) 
Heartbeat CPU 0 instructions: 59000003 cycles: 90683371 heartbeat IPC: 0.57268 cumulative IPC: 0.560899 (Simulation time: 2 hr 29 min 50 sec) 
Heartbeat CPU 0 instructions: 60000000 cycles: 92423723 heartbeat IPC: 0.574595 cumulative IPC: 0.561167 (Simulation time: 2 hr 32 min 28 sec) 
Heartbeat CPU 0 instructions: 61000002 cycles: 94165675 heartbeat IPC: 0.57407 cumulative IPC: 0.561414 (Simulation time: 2 hr 35 min 9 sec) 
Heartbeat CPU 0 instructions: 62000001 cycles: 95909538 heartbeat IPC: 0.573439 cumulative IPC: 0.561641 (Simulation time: 2 hr 37 min 44 sec) 
Heartbeat CPU 0 instructions: 63000001 cycles: 97649562 heartbeat IPC: 0.574705 cumulative IPC: 0.561882 (Simulation time: 2 hr 40 min 23 sec) 
Heartbeat CPU 0 instructions: 64000000 cycles: 99397016 heartbeat IPC: 0.572261 cumulative IPC: 0.562071 (Simulation time: 2 hr 42 min 54 sec) 
Heartbeat CPU 0 instructions: 65000002 cycles: 101145290 heartbeat IPC: 0.571994 cumulative IPC: 0.562248 (Simulation time: 2 hr 45 min 32 sec) 
Heartbeat CPU 0 instructions: 66000002 cycles: 102889311 heartbeat IPC: 0.573388 cumulative IPC: 0.562443 (Simulation time: 2 hr 48 min 2 sec) 
Heartbeat CPU 0 instructions: 67000000 cycles: 104638298 heartbeat IPC: 0.571758 cumulative IPC: 0.562604 (Simulation time: 2 hr 50 min 36 sec) 
Heartbeat CPU 0 instructions: 68000000 cycles: 106385523 heartbeat IPC: 0.572336 cumulative IPC: 0.562769 (Simulation time: 2 hr 53 min 17 sec) 
Heartbeat CPU 0 instructions: 69000000 cycles: 108138167 heartbeat IPC: 0.570567 cumulative IPC: 0.562899 (Simulation time: 2 hr 55 min 50 sec) 
Heartbeat CPU 0 instructions: 70000002 cycles: 109884366 heartbeat IPC: 0.572674 cumulative IPC: 0.563059 (Simulation time: 2 hr 58 min 38 sec) 
Heartbeat CPU 0 instructions: 71000001 cycles: 111631107 heartbeat IPC: 0.572494 cumulative IPC: 0.563212 (Simulation time: 3 hr 1 min 11 sec) 
Heartbeat CPU 0 instructions: 72000000 cycles: 113380896 heartbeat IPC: 0.571497 cumulative IPC: 0.563343 (Simulation time: 3 hr 3 min 44 sec) 
Heartbeat CPU 0 instructions: 73000000 cycles: 115128293 heartbeat IPC: 0.57228 cumulative IPC: 0.563483 (Simulation time: 3 hr 6 min 22 sec) 
Heartbeat CPU 0 instructions: 74000000 cycles: 116949750 heartbeat IPC: 0.549011 cumulative IPC: 0.563251 (Simulation time: 3 hr 9 min 4 sec) 
Heartbeat CPU 0 instructions: 75000000 cycles: 119216378 heartbeat IPC: 0.441184 cumulative IPC: 0.560864 (Simulation time: 3 hr 12 min 33 sec) 
Heartbeat CPU 0 instructions: 76000000 cycles: 121586754 heartbeat IPC: 0.421874 cumulative IPC: 0.558078 (Simulation time: 3 hr 15 min 46 sec) 
Heartbeat CPU 0 instructions: 77000000 cycles: 123972805 heartbeat IPC: 0.419103 cumulative IPC: 0.555329 (Simulation time: 3 hr 18 min 57 sec) 
Heartbeat CPU 0 instructions: 78000000 cycles: 126372832 heartbeat IPC: 0.416662 cumulative IPC: 0.552625 (Simulation time: 3 hr 22 min 14 sec) 
Heartbeat CPU 0 instructions: 79000000 cycles: 128767702 heartbeat IPC: 0.417559 cumulative IPC: 0.550046 (Simulation time: 3 hr 25 min 40 sec) 
Heartbeat CPU 0 instructions: 80000000 cycles: 131179079 heartbeat IPC: 0.414701 cumulative IPC: 0.547494 (Simulation time: 3 hr 28 min 54 sec) 
Heartbeat CPU 0 instructions: 81000000 cycles: 133590799 heartbeat IPC: 0.414642 cumulative IPC: 0.545034 (Simulation time: 3 hr 32 min 25 sec) 
Heartbeat CPU 0 instructions: 82000000 cycles: 136017274 heartbeat IPC: 0.41212 cumulative IPC: 0.542603 (Simulation time: 3 hr 35 min 50 sec) 
Heartbeat CPU 0 instructions: 83000000 cycles: 138459211 heartbeat IPC: 0.409511 cumulative IPC: 0.540198 (Simulation time: 3 hr 39 min 17 sec) 
Heartbeat CPU 0 instructions: 84000000 cycles: 140898620 heartbeat IPC: 0.409935 cumulative IPC: 0.537889 (Simulation time: 3 hr 42 min 43 sec) 
Heartbeat CPU 0 instructions: 85000001 cycles: 143193037 heartbeat IPC: 0.435841 cumulative IPC: 0.536215 (Simulation time: 3 hr 46 min 1 sec) 
Heartbeat CPU 0 instructions: 86000000 cycles: 144801957 heartbeat IPC: 0.621534 cumulative IPC: 0.537185 (Simulation time: 3 hr 48 min 54 sec) 
Heartbeat CPU 0 instructions: 87000003 cycles: 146339007 heartbeat IPC: 0.650599 cumulative IPC: 0.538404 (Simulation time: 3 hr 51 min 41 sec) 
Heartbeat CPU 0 instructions: 88000000 cycles: 147867572 heartbeat IPC: 0.654206 cumulative IPC: 0.539629 (Simulation time: 3 hr 54 min 24 sec) 
Heartbeat CPU 0 instructions: 89000001 cycles: 149392127 heartbeat IPC: 0.65593 cumulative IPC: 0.540842 (Simulation time: 3 hr 57 min 15 sec) 
Heartbeat CPU 0 instructions: 90000000 cycles: 150913392 heartbeat IPC: 0.657347 cumulative IPC: 0.542043 (Simulation time: 3 hr 59 min 51 sec) 
Heartbeat CPU 0 instructions: 91000001 cycles: 152431762 heartbeat IPC: 0.658602 cumulative IPC: 0.54323 (Simulation time: 4 hr 2 min 24 sec) 
Heartbeat CPU 0 instructions: 92000000 cycles: 153948322 heartbeat IPC: 0.659386 cumulative IPC: 0.5444 (Simulation time: 4 hr 4 min 57 sec) 
Heartbeat CPU 0 instructions: 93000002 cycles: 155462401 heartbeat IPC: 0.660469 cumulative IPC: 0.545555 (Simulation time: 4 hr 7 min 26 sec) 
Heartbeat CPU 0 instructions: 94000001 cycles: 156974382 heartbeat IPC: 0.661383 cumulative IPC: 0.546695 (Simulation time: 4 hr 9 min 51 sec) 
Heartbeat CPU 0 instructions: 95000000 cycles: 158484856 heartbeat IPC: 0.662043 cumulative IPC: 0.547817 (Simulation time: 4 hr 12 min 28 sec) 
Heartbeat CPU 0 instructions: 96000000 cycles: 159995382 heartbeat IPC: 0.662021 cumulative IPC: 0.548919 (Simulation time: 4 hr 14 min 44 sec) 
Heartbeat CPU 0 instructions: 97000002 cycles: 161505897 heartbeat IPC: 0.662027 cumulative IPC: 0.549999 (Simulation time: 4 hr 16 min 57 sec) 
Heartbeat CPU 0 instructions: 98000001 cycles: 163015815 heartbeat IPC: 0.662287 cumulative IPC: 0.55106 (Simulation time: 4 hr 19 min 3 sec) 
Heartbeat CPU 0 instructions: 99000000 cycles: 164525807 heartbeat IPC: 0.662255 cumulative IPC: 0.552102 (Simulation time: 4 hr 21 min 12 sec) 
Heartbeat CPU 0 instructions: 100000000 cycles: 166035830 heartbeat IPC: 0.662242 cumulative IPC: 0.553124 (Simulation time: 4 hr 23 min 8 sec) 
Heartbeat CPU 0 instructions: 101000000 cycles: 167545863 heartbeat IPC: 0.662237 cumulative IPC: 0.554127 (Simulation time: 4 hr 25 min 1 sec) 
Heartbeat CPU 0 instructions: 102000002 cycles: 169055609 heartbeat IPC: 0.662364 cumulative IPC: 0.555113 (Simulation time: 4 hr 26 min 46 sec) 
Heartbeat CPU 0 instructions: 103000001 cycles: 170565422 heartbeat IPC: 0.662333 cumulative IPC: 0.556081 (Simulation time: 4 hr 28 min 23 sec) 
Heartbeat CPU 0 instructions: 104000000 cycles: 172776885 heartbeat IPC: 0.452189 cumulative IPC: 0.554725 (Simulation time: 4 hr 30 min 10 sec) 
Heartbeat CPU 0 instructions: 105000000 cycles: 175096669 heartbeat IPC: 0.431075 cumulative IPC: 0.553056 (Simulation time: 4 hr 32 min 0 sec) 
Heartbeat CPU 0 instructions: 106000000 cycles: 177424775 heartbeat IPC: 0.429534 cumulative IPC: 0.551404 (Simulation time: 4 hr 33 min 50 sec) 
Heartbeat CPU 0 instructions: 107000000 cycles: 179760795 heartbeat IPC: 0.428079 cumulative IPC: 0.549771 (Simulation time: 4 hr 35 min 35 sec) 
Heartbeat CPU 0 instructions: 108000000 cycles: 182103857 heartbeat IPC: 0.426792 cumulative IPC: 0.548159 (Simulation time: 4 hr 37 min 14 sec) 
Heartbeat CPU 0 instructions: 109000000 cycles: 184466812 heartbeat IPC: 0.423199 cumulative IPC: 0.546529 (Simulation time: 4 hr 38 min 52 sec) 
Heartbeat CPU 0 instructions: 110000000 cycles: 186841373 heartbeat IPC: 0.42113 cumulative IPC: 0.544907 (Simulation time: 4 hr 40 min 22 sec) 
Finished CPU 0 instructions: 100000003 cycles: 183517690 cummulative IPC: 0.544907 (Simulation time: 4 hr 40 min 22 sec) 

ChampSim completed all CPUs

Region of Interest Statistics

CPU 0 cummulative IPC: 0.544907 instructions: 100000003 cycles: 183517690
LLC TOTAL     ACCESS:    4917133  HIT:     213655  MISS:    4703478
LLC LOAD      ACCESS:    1162008  HIT:        914  MISS:    1161094
LLC RFO       ACCESS:         24  HIT:          0  MISS:         24
LLC PREFETCH  ACCESS:    2228403  HIT:       1346  MISS:    2227057
LLC WRITEBACK ACCESS:    1526698  HIT:     211395  MISS:    1315303
Insertion Distribution: 
	LOAD 0 0 133031 1032411 
	RFO 0 0 28 0 
	PREF 0 0 305940 2193767 
	WRITEBACK 0 0 0 1327009 
Total Prefetch Downgrades: 418
