
*** ChampSim Multicore Out-of-Order Simulator ***

Warmup Instructions: 10000000
Simulation Instructions: 100000000
Configuration: 2
Number of CPUs: 1
LLC sets: 2048
LLC ways: 16
Off-chip DRAM Channels: 1 Width: 64-bit Data Rate: 1600 MT/s

CPU 0 runs /datasets/cs240c-wi22-a00-public/data/Assignment2-gz/soplex_66B.trace.gz
CPU 0 L1D next line prefetcher
CPU 0 L2C IP-based stride prefetcher
Initialize SRRIP state
Heartbeat CPU 0 instructions: 1000003 cycles: 415042 heartbeat IPC: 2.4094 cumulative IPC: 2.4094 (Simulation time: 0 hr 2 min 21 sec) 
Heartbeat CPU 0 instructions: 2000003 cycles: 837412 heartbeat IPC: 2.36759 cumulative IPC: 2.38831 (Simulation time: 0 hr 4 min 36 sec) 
Heartbeat CPU 0 instructions: 3000003 cycles: 1242414 heartbeat IPC: 2.46912 cumulative IPC: 2.41466 (Simulation time: 0 hr 6 min 51 sec) 
Heartbeat CPU 0 instructions: 4000000 cycles: 1626526 heartbeat IPC: 2.6034 cumulative IPC: 2.45923 (Simulation time: 0 hr 8 min 49 sec) 
Heartbeat CPU 0 instructions: 5000000 cycles: 2040956 heartbeat IPC: 2.41295 cumulative IPC: 2.44983 (Simulation time: 0 hr 10 min 50 sec) 
Heartbeat CPU 0 instructions: 6000000 cycles: 2514761 heartbeat IPC: 2.11057 cumulative IPC: 2.38591 (Simulation time: 0 hr 13 min 8 sec) 
Heartbeat CPU 0 instructions: 7000002 cycles: 2887052 heartbeat IPC: 2.68608 cumulative IPC: 2.42462 (Simulation time: 0 hr 15 min 23 sec) 
Heartbeat CPU 0 instructions: 8000000 cycles: 3312677 heartbeat IPC: 2.34948 cumulative IPC: 2.41497 (Simulation time: 0 hr 17 min 43 sec) 
Heartbeat CPU 0 instructions: 9000001 cycles: 3751239 heartbeat IPC: 2.28018 cumulative IPC: 2.39921 (Simulation time: 0 hr 19 min 46 sec) 
Heartbeat CPU 0 instructions: 10000002 cycles: 4163355 heartbeat IPC: 2.4265 cumulative IPC: 2.40191 (Simulation time: 0 hr 21 min 58 sec) 

Warmup complete CPU 0 instructions: 10000002 cycles: 4163355 (Simulation time: 0 hr 21 min 58 sec) 

Heartbeat CPU 0 instructions: 11000001 cycles: 7207000 heartbeat IPC: 0.328553 cumulative IPC: 0.328553 (Simulation time: 0 hr 24 min 46 sec) 
Heartbeat CPU 0 instructions: 12000000 cycles: 8495493 heartbeat IPC: 0.7761 cumulative IPC: 0.461665 (Simulation time: 0 hr 26 min 42 sec) 
Heartbeat CPU 0 instructions: 13000001 cycles: 11064856 heartbeat IPC: 0.389202 cumulative IPC: 0.434688 (Simulation time: 0 hr 29 min 12 sec) 
Heartbeat CPU 0 instructions: 14000002 cycles: 13545683 heartbeat IPC: 0.403092 cumulative IPC: 0.426333 (Simulation time: 0 hr 31 min 35 sec) 
Heartbeat CPU 0 instructions: 15000002 cycles: 15943386 heartbeat IPC: 0.417066 cumulative IPC: 0.424447 (Simulation time: 0 hr 33 min 45 sec) 
Heartbeat CPU 0 instructions: 16000000 cycles: 18829844 heartbeat IPC: 0.346445 cumulative IPC: 0.409096 (Simulation time: 0 hr 36 min 30 sec) 
Heartbeat CPU 0 instructions: 17000001 cycles: 21075963 heartbeat IPC: 0.445213 cumulative IPC: 0.413892 (Simulation time: 0 hr 39 min 16 sec) 
Heartbeat CPU 0 instructions: 18000000 cycles: 23015496 heartbeat IPC: 0.515588 cumulative IPC: 0.424355 (Simulation time: 0 hr 41 min 45 sec) 
Heartbeat CPU 0 instructions: 19000002 cycles: 26424200 heartbeat IPC: 0.293367 cumulative IPC: 0.404297 (Simulation time: 0 hr 44 min 33 sec) 
Heartbeat CPU 0 instructions: 20000000 cycles: 27726103 heartbeat IPC: 0.768105 cumulative IPC: 0.424399 (Simulation time: 0 hr 46 min 29 sec) 
Heartbeat CPU 0 instructions: 21000000 cycles: 29933394 heartbeat IPC: 0.453044 cumulative IPC: 0.426852 (Simulation time: 0 hr 48 min 51 sec) 
Heartbeat CPU 0 instructions: 22000000 cycles: 32649127 heartbeat IPC: 0.368225 cumulative IPC: 0.421263 (Simulation time: 0 hr 51 min 28 sec) 
Heartbeat CPU 0 instructions: 23000000 cycles: 35049516 heartbeat IPC: 0.416599 cumulative IPC: 0.4209 (Simulation time: 0 hr 53 min 36 sec) 
Heartbeat CPU 0 instructions: 24000000 cycles: 37567925 heartbeat IPC: 0.397076 cumulative IPC: 0.419104 (Simulation time: 0 hr 56 min 7 sec) 
Heartbeat CPU 0 instructions: 25000003 cycles: 40059928 heartbeat IPC: 0.401285 cumulative IPC: 0.417867 (Simulation time: 0 hr 59 min 6 sec) 
Heartbeat CPU 0 instructions: 26000001 cycles: 42210893 heartbeat IPC: 0.464907 cumulative IPC: 0.420527 (Simulation time: 1 hr 1 min 32 sec) 
Heartbeat CPU 0 instructions: 27000002 cycles: 45658419 heartbeat IPC: 0.290063 cumulative IPC: 0.409687 (Simulation time: 1 hr 4 min 32 sec) 
Heartbeat CPU 0 instructions: 28000000 cycles: 46961019 heartbeat IPC: 0.767694 cumulative IPC: 0.420584 (Simulation time: 1 hr 6 min 25 sec) 
Heartbeat CPU 0 instructions: 29000002 cycles: 48789299 heartbeat IPC: 0.546963 cumulative IPC: 0.425761 (Simulation time: 1 hr 8 min 36 sec) 
Heartbeat CPU 0 instructions: 30000000 cycles: 51689877 heartbeat IPC: 0.344758 cumulative IPC: 0.420818 (Simulation time: 1 hr 11 min 16 sec) 
Heartbeat CPU 0 instructions: 31000001 cycles: 54185097 heartbeat IPC: 0.400767 cumulative IPC: 0.419817 (Simulation time: 1 hr 13 min 27 sec) 
Heartbeat CPU 0 instructions: 32000000 cycles: 56618424 heartbeat IPC: 0.41096 cumulative IPC: 0.419407 (Simulation time: 1 hr 15 min 31 sec) 
Heartbeat CPU 0 instructions: 33000001 cycles: 60031526 heartbeat IPC: 0.292989 cumulative IPC: 0.411683 (Simulation time: 1 hr 18 min 56 sec) 
Heartbeat CPU 0 instructions: 34000003 cycles: 62020736 heartbeat IPC: 0.502713 cumulative IPC: 0.414813 (Simulation time: 1 hr 21 min 40 sec) 
Heartbeat CPU 0 instructions: 35000003 cycles: 65021490 heartbeat IPC: 0.33325 cumulative IPC: 0.410791 (Simulation time: 1 hr 24 min 18 sec) 
Heartbeat CPU 0 instructions: 36000000 cycles: 66336721 heartbeat IPC: 0.76032 cumulative IPC: 0.418185 (Simulation time: 1 hr 26 min 7 sec) 
Heartbeat CPU 0 instructions: 37000000 cycles: 68919487 heartbeat IPC: 0.387182 cumulative IPC: 0.416949 (Simulation time: 1 hr 28 min 33 sec) 
Heartbeat CPU 0 instructions: 38000001 cycles: 71399997 heartbeat IPC: 0.403143 cumulative IPC: 0.41644 (Simulation time: 1 hr 30 min 54 sec) 
Heartbeat CPU 0 instructions: 39000003 cycles: 73860111 heartbeat IPC: 0.406486 cumulative IPC: 0.416088 (Simulation time: 1 hr 33 min 2 sec) 
Heartbeat CPU 0 instructions: 40000000 cycles: 76743794 heartbeat IPC: 0.346778 cumulative IPC: 0.413334 (Simulation time: 1 hr 35 min 35 sec) 
Heartbeat CPU 0 instructions: 41000001 cycles: 78955113 heartbeat IPC: 0.452219 cumulative IPC: 0.414484 (Simulation time: 1 hr 38 min 24 sec) 
Heartbeat CPU 0 instructions: 42000003 cycles: 80912993 heartbeat IPC: 0.510758 cumulative IPC: 0.41694 (Simulation time: 1 hr 40 min 59 sec) 
Heartbeat CPU 0 instructions: 43000000 cycles: 84310617 heartbeat IPC: 0.294322 cumulative IPC: 0.411742 (Simulation time: 1 hr 43 min 56 sec) 
Heartbeat CPU 0 instructions: 44000000 cycles: 85631150 heartbeat IPC: 0.75727 cumulative IPC: 0.417343 (Simulation time: 1 hr 45 min 47 sec) 
Heartbeat CPU 0 instructions: 45000003 cycles: 87830321 heartbeat IPC: 0.454718 cumulative IPC: 0.418325 (Simulation time: 1 hr 48 min 5 sec) 
Heartbeat CPU 0 instructions: 46000003 cycles: 90568814 heartbeat IPC: 0.365164 cumulative IPC: 0.41664 (Simulation time: 1 hr 50 min 49 sec) 
Heartbeat CPU 0 instructions: 47000001 cycles: 92968332 heartbeat IPC: 0.41675 cumulative IPC: 0.416643 (Simulation time: 1 hr 52 min 59 sec) 
Heartbeat CPU 0 instructions: 48000000 cycles: 95465696 heartbeat IPC: 0.400422 cumulative IPC: 0.4162 (Simulation time: 1 hr 55 min 24 sec) 
Heartbeat CPU 0 instructions: 49000000 cycles: 99062477 heartbeat IPC: 0.278026 cumulative IPC: 0.410963 (Simulation time: 1 hr 59 min 2 sec) 
Heartbeat CPU 0 instructions: 50000003 cycles: 104659370 heartbeat IPC: 0.178671 cumulative IPC: 0.398026 (Simulation time: 2 hr 2 min 27 sec) 
Heartbeat CPU 0 instructions: 51000002 cycles: 107069557 heartbeat IPC: 0.414905 cumulative IPC: 0.398421 (Simulation time: 2 hr 5 min 44 sec) 
Heartbeat CPU 0 instructions: 52000000 cycles: 110818520 heartbeat IPC: 0.26674 cumulative IPC: 0.393792 (Simulation time: 2 hr 8 min 41 sec) 
Heartbeat CPU 0 instructions: 53000003 cycles: 113503845 heartbeat IPC: 0.372396 cumulative IPC: 0.393267 (Simulation time: 2 hr 11 min 56 sec) 
Heartbeat CPU 0 instructions: 54000000 cycles: 115987323 heartbeat IPC: 0.40266 cumulative IPC: 0.393476 (Simulation time: 2 hr 15 min 13 sec) 
Heartbeat CPU 0 instructions: 55000002 cycles: 119504049 heartbeat IPC: 0.284356 cumulative IPC: 0.390149 (Simulation time: 2 hr 18 min 10 sec) 
Heartbeat CPU 0 instructions: 56000000 cycles: 122783255 heartbeat IPC: 0.304951 cumulative IPC: 0.387793 (Simulation time: 2 hr 21 min 6 sec) 
Heartbeat CPU 0 instructions: 57000003 cycles: 125303879 heartbeat IPC: 0.396728 cumulative IPC: 0.387979 (Simulation time: 2 hr 23 min 45 sec) 
Heartbeat CPU 0 instructions: 58000000 cycles: 127483066 heartbeat IPC: 0.458885 cumulative IPC: 0.389232 (Simulation time: 2 hr 26 min 32 sec) 
Heartbeat CPU 0 instructions: 59000002 cycles: 129049794 heartbeat IPC: 0.638274 cumulative IPC: 0.392356 (Simulation time: 2 hr 29 min 7 sec) 
Heartbeat CPU 0 instructions: 60000000 cycles: 130318706 heartbeat IPC: 0.788075 cumulative IPC: 0.396337 (Simulation time: 2 hr 31 min 16 sec) 
Heartbeat CPU 0 instructions: 61000002 cycles: 133147478 heartbeat IPC: 0.353511 cumulative IPC: 0.395398 (Simulation time: 2 hr 34 min 2 sec) 
Heartbeat CPU 0 instructions: 62000000 cycles: 135735443 heartbeat IPC: 0.386403 cumulative IPC: 0.395221 (Simulation time: 2 hr 37 min 13 sec) 
Heartbeat CPU 0 instructions: 63000002 cycles: 137667227 heartbeat IPC: 0.517657 cumulative IPC: 0.396992 (Simulation time: 2 hr 40 min 3 sec) 
Heartbeat CPU 0 instructions: 64000000 cycles: 140097784 heartbeat IPC: 0.411427 cumulative IPC: 0.39725 (Simulation time: 2 hr 42 min 31 sec) 
Heartbeat CPU 0 instructions: 65000000 cycles: 143558553 heartbeat IPC: 0.288953 cumulative IPC: 0.394562 (Simulation time: 2 hr 45 min 32 sec) 
Heartbeat CPU 0 instructions: 66000001 cycles: 144862389 heartbeat IPC: 0.766968 cumulative IPC: 0.398013 (Simulation time: 2 hr 47 min 33 sec) 
Heartbeat CPU 0 instructions: 67000000 cycles: 146180312 heartbeat IPC: 0.758769 cumulative IPC: 0.401361 (Simulation time: 2 hr 49 min 32 sec) 
Heartbeat CPU 0 instructions: 68000000 cycles: 149432812 heartbeat IPC: 0.307456 cumulative IPC: 0.399258 (Simulation time: 2 hr 52 min 24 sec) 
Heartbeat CPU 0 instructions: 69000000 cycles: 151982563 heartbeat IPC: 0.392195 cumulative IPC: 0.399136 (Simulation time: 2 hr 54 min 41 sec) 
Heartbeat CPU 0 instructions: 70000003 cycles: 154357750 heartbeat IPC: 0.421021 cumulative IPC: 0.399482 (Simulation time: 2 hr 56 min 53 sec) 
Heartbeat CPU 0 instructions: 71000000 cycles: 156837700 heartbeat IPC: 0.403233 cumulative IPC: 0.399543 (Simulation time: 2 hr 59 min 56 sec) 
Heartbeat CPU 0 instructions: 72000000 cycles: 159565675 heartbeat IPC: 0.366572 cumulative IPC: 0.398964 (Simulation time: 3 hr 2 min 32 sec) 
Heartbeat CPU 0 instructions: 73000002 cycles: 162399563 heartbeat IPC: 0.352873 cumulative IPC: 0.398139 (Simulation time: 3 hr 5 min 22 sec) 
Heartbeat CPU 0 instructions: 74000000 cycles: 164360456 heartbeat IPC: 0.509971 cumulative IPC: 0.399508 (Simulation time: 3 hr 7 min 36 sec) 
Heartbeat CPU 0 instructions: 75000002 cycles: 165680643 heartbeat IPC: 0.75747 cumulative IPC: 0.402434 (Simulation time: 3 hr 9 min 30 sec) 
Heartbeat CPU 0 instructions: 76000000 cycles: 168846056 heartbeat IPC: 0.315914 cumulative IPC: 0.400771 (Simulation time: 3 hr 12 min 23 sec) 
Heartbeat CPU 0 instructions: 77000000 cycles: 171271689 heartbeat IPC: 0.412264 cumulative IPC: 0.400937 (Simulation time: 3 hr 14 min 29 sec) 
Heartbeat CPU 0 instructions: 78000003 cycles: 173652199 heartbeat IPC: 0.420079 cumulative IPC: 0.401206 (Simulation time: 3 hr 16 min 42 sec) 
Heartbeat CPU 0 instructions: 79000001 cycles: 176862181 heartbeat IPC: 0.311528 cumulative IPC: 0.399539 (Simulation time: 3 hr 19 min 44 sec) 
Heartbeat CPU 0 instructions: 80000000 cycles: 179487698 heartbeat IPC: 0.380877 cumulative IPC: 0.39926 (Simulation time: 3 hr 22 min 17 sec) 
Heartbeat CPU 0 instructions: 81000003 cycles: 182556687 heartbeat IPC: 0.325841 cumulative IPC: 0.397997 (Simulation time: 3 hr 25 min 13 sec) 
Heartbeat CPU 0 instructions: 82000000 cycles: 184274488 heartbeat IPC: 0.582138 cumulative IPC: 0.399753 (Simulation time: 3 hr 27 min 15 sec) 
Heartbeat CPU 0 instructions: 83000001 cycles: 185596688 heartbeat IPC: 0.756316 cumulative IPC: 0.402352 (Simulation time: 3 hr 29 min 16 sec) 
Heartbeat CPU 0 instructions: 84000000 cycles: 188809950 heartbeat IPC: 0.31121 cumulative IPC: 0.400766 (Simulation time: 3 hr 32 min 8 sec) 
Heartbeat CPU 0 instructions: 85000000 cycles: 191197009 heartbeat IPC: 0.418926 cumulative IPC: 0.400997 (Simulation time: 3 hr 34 min 20 sec) 
Heartbeat CPU 0 instructions: 86000000 cycles: 193630719 heartbeat IPC: 0.410895 cumulative IPC: 0.401124 (Simulation time: 3 hr 36 min 40 sec) 
Heartbeat CPU 0 instructions: 87000000 cycles: 196711755 heartbeat IPC: 0.324566 cumulative IPC: 0.399899 (Simulation time: 3 hr 39 min 39 sec) 
Heartbeat CPU 0 instructions: 88000000 cycles: 198917052 heartbeat IPC: 0.453454 cumulative IPC: 0.400506 (Simulation time: 3 hr 42 min 9 sec) 
Heartbeat CPU 0 instructions: 89000001 cycles: 202278377 heartbeat IPC: 0.297502 cumulative IPC: 0.398758 (Simulation time: 3 hr 45 min 12 sec) 
Heartbeat CPU 0 instructions: 90000002 cycles: 203585107 heartbeat IPC: 0.76527 cumulative IPC: 0.40116 (Simulation time: 3 hr 47 min 8 sec) 
Heartbeat CPU 0 instructions: 91000000 cycles: 204989630 heartbeat IPC: 0.711984 cumulative IPC: 0.403334 (Simulation time: 3 hr 49 min 2 sec) 
Heartbeat CPU 0 instructions: 92000000 cycles: 208127439 heartbeat IPC: 0.318694 cumulative IPC: 0.402032 (Simulation time: 3 hr 51 min 40 sec) 
Heartbeat CPU 0 instructions: 93000000 cycles: 210689516 heartbeat IPC: 0.390308 cumulative IPC: 0.401886 (Simulation time: 3 hr 53 min 51 sec) 
Heartbeat CPU 0 instructions: 94000001 cycles: 213056039 heartbeat IPC: 0.422561 cumulative IPC: 0.40212 (Simulation time: 3 hr 56 min 10 sec) 
Heartbeat CPU 0 instructions: 95000003 cycles: 216371170 heartbeat IPC: 0.301648 cumulative IPC: 0.400551 (Simulation time: 3 hr 59 min 15 sec) 
Heartbeat CPU 0 instructions: 96000000 cycles: 218259512 heartbeat IPC: 0.529563 cumulative IPC: 0.401689 (Simulation time: 4 hr 1 min 36 sec) 
Heartbeat CPU 0 instructions: 97000003 cycles: 221455471 heartbeat IPC: 0.312896 cumulative IPC: 0.400383 (Simulation time: 4 hr 4 min 16 sec) 
Heartbeat CPU 0 instructions: 98000003 cycles: 222750373 heartbeat IPC: 0.772259 cumulative IPC: 0.402586 (Simulation time: 4 hr 6 min 1 sec) 
Heartbeat CPU 0 instructions: 99000000 cycles: 225104637 heartbeat IPC: 0.42476 cumulative IPC: 0.402822 (Simulation time: 4 hr 8 min 12 sec) 
Heartbeat CPU 0 instructions: 100000000 cycles: 227750783 heartbeat IPC: 0.377908 cumulative IPC: 0.402527 (Simulation time: 4 hr 10 min 37 sec) 
Heartbeat CPU 0 instructions: 101000001 cycles: 230163698 heartbeat IPC: 0.414437 cumulative IPC: 0.402654 (Simulation time: 4 hr 12 min 37 sec) 
Heartbeat CPU 0 instructions: 102000000 cycles: 232789784 heartbeat IPC: 0.380794 cumulative IPC: 0.402403 (Simulation time: 4 hr 14 min 45 sec) 
Heartbeat CPU 0 instructions: 103000002 cycles: 236012448 heartbeat IPC: 0.310303 cumulative IPC: 0.401123 (Simulation time: 4 hr 17 min 36 sec) 
Heartbeat CPU 0 instructions: 104000000 cycles: 238250577 heartbeat IPC: 0.446801 cumulative IPC: 0.40156 (Simulation time: 4 hr 20 min 6 sec) 
Heartbeat CPU 0 instructions: 105000000 cycles: 240674426 heartbeat IPC: 0.412567 cumulative IPC: 0.401673 (Simulation time: 4 hr 22 min 6 sec) 
Heartbeat CPU 0 instructions: 106000001 cycles: 241981538 heartbeat IPC: 0.765046 cumulative IPC: 0.40367 (Simulation time: 4 hr 23 min 38 sec) 
Heartbeat CPU 0 instructions: 107000001 cycles: 244973239 heartbeat IPC: 0.334258 cumulative IPC: 0.402807 (Simulation time: 4 hr 25 min 48 sec) 
Heartbeat CPU 0 instructions: 108000000 cycles: 247243175 heartbeat IPC: 0.440541 cumulative IPC: 0.40316 (Simulation time: 4 hr 27 min 21 sec) 
Heartbeat CPU 0 instructions: 109000003 cycles: 249662115 heartbeat IPC: 0.413405 cumulative IPC: 0.403261 (Simulation time: 4 hr 28 min 48 sec) 
Heartbeat CPU 0 instructions: 110000001 cycles: 252822654 heartbeat IPC: 0.316401 cumulative IPC: 0.402157 (Simulation time: 4 hr 30 min 43 sec) 
Finished CPU 0 instructions: 100000003 cycles: 248659300 cummulative IPC: 0.402157 (Simulation time: 4 hr 30 min 43 sec) 

ChampSim completed all CPUs

Region of Interest Statistics

CPU 0 cummulative IPC: 0.402157 instructions: 100000003 cycles: 248659300
LLC TOTAL     ACCESS:    6598097  HIT:    3303498  MISS:    3294599
LLC LOAD      ACCESS:    1695727  HIT:     744049  MISS:     951678
LLC RFO       ACCESS:     658483  HIT:     239106  MISS:     419377
LLC PREFETCH  ACCESS:    2683228  HIT:    1095351  MISS:    1587877
LLC WRITEBACK ACCESS:    1560659  HIT:    1224992  MISS:     335667
Insertion Distribution: 
	LOAD 273895 0 206698 547933 
	RFO 192162 0 135546 151164 
	PREF 0 82821 489350 1211671 
	WRITEBACK 0 0 0 361371 
Total Prefetch Downgrades: 103382
