
*** ChampSim Multicore Out-of-Order Simulator ***

Warmup Instructions: 10000000
Simulation Instructions: 100000000
Configuration: 2
Number of CPUs: 1
LLC sets: 2048
LLC ways: 16
Off-chip DRAM Channels: 1 Width: 64-bit Data Rate: 1600 MT/s

CPU 0 runs /datasets/cs240c-wi22-a00-public/data/Assignment2-gz/leslie3d_1186B.trace.gz
CPU 0 L1D next line prefetcher
CPU 0 L2C IP-based stride prefetcher
config 2, num_core 1, llc_sets 2048
Heartbeat CPU 0 instructions: 1000002 cycles: 564510 heartbeat IPC: 1.77145 cumulative IPC: 1.77145 (Simulation time: 0 hr 2 min 50 sec) 
Heartbeat CPU 0 instructions: 2000000 cycles: 1215849 heartbeat IPC: 1.5353 cumulative IPC: 1.64494 (Simulation time: 0 hr 5 min 46 sec) 
Heartbeat CPU 0 instructions: 3000000 cycles: 1867614 heartbeat IPC: 1.5343 cumulative IPC: 1.60633 (Simulation time: 0 hr 8 min 47 sec) 
Heartbeat CPU 0 instructions: 4000000 cycles: 2473204 heartbeat IPC: 1.65128 cumulative IPC: 1.61734 (Simulation time: 0 hr 11 min 57 sec) 
Heartbeat CPU 0 instructions: 5000000 cycles: 3083584 heartbeat IPC: 1.63832 cumulative IPC: 1.62149 (Simulation time: 0 hr 15 min 10 sec) 
Heartbeat CPU 0 instructions: 6000000 cycles: 3735383 heartbeat IPC: 1.53422 cumulative IPC: 1.60626 (Simulation time: 0 hr 17 min 55 sec) 
Heartbeat CPU 0 instructions: 7000001 cycles: 4386676 heartbeat IPC: 1.53541 cumulative IPC: 1.59574 (Simulation time: 0 hr 20 min 58 sec) 
Heartbeat CPU 0 instructions: 8000000 cycles: 4951317 heartbeat IPC: 1.77104 cumulative IPC: 1.61573 (Simulation time: 0 hr 23 min 48 sec) 
Heartbeat CPU 0 instructions: 9000003 cycles: 5602605 heartbeat IPC: 1.53542 cumulative IPC: 1.6064 (Simulation time: 0 hr 26 min 45 sec) 
Heartbeat CPU 0 instructions: 10000001 cycles: 6253760 heartbeat IPC: 1.53573 cumulative IPC: 1.59904 (Simulation time: 0 hr 29 min 38 sec) 

Warmup complete CPU 0 instructions: 10000001 cycles: 6253760 (Simulation time: 0 hr 29 min 38 sec) 

Heartbeat CPU 0 instructions: 11000001 cycles: 7645023 heartbeat IPC: 0.718771 cumulative IPC: 0.718771 (Simulation time: 0 hr 32 min 28 sec) 
Heartbeat CPU 0 instructions: 12000000 cycles: 8884613 heartbeat IPC: 0.806718 cumulative IPC: 0.760209 (Simulation time: 0 hr 35 min 17 sec) 
Heartbeat CPU 0 instructions: 13000000 cycles: 10111006 heartbeat IPC: 0.815399 cumulative IPC: 0.777757 (Simulation time: 0 hr 38 min 10 sec) 
Heartbeat CPU 0 instructions: 14000000 cycles: 11358777 heartbeat IPC: 0.801429 cumulative IPC: 0.783543 (Simulation time: 0 hr 41 min 7 sec) 
Heartbeat CPU 0 instructions: 15000002 cycles: 12749583 heartbeat IPC: 0.719009 cumulative IPC: 0.769726 (Simulation time: 0 hr 43 min 51 sec) 
Heartbeat CPU 0 instructions: 16000000 cycles: 13973749 heartbeat IPC: 0.816881 cumulative IPC: 0.777203 (Simulation time: 0 hr 46 min 48 sec) 
Heartbeat CPU 0 instructions: 17000000 cycles: 15193171 heartbeat IPC: 0.820061 cumulative IPC: 0.783049 (Simulation time: 0 hr 49 min 37 sec) 
Heartbeat CPU 0 instructions: 18000001 cycles: 16603769 heartbeat IPC: 0.70892 cumulative IPC: 0.772946 (Simulation time: 0 hr 52 min 30 sec) 
Heartbeat CPU 0 instructions: 19000003 cycles: 17847597 heartbeat IPC: 0.803971 cumulative IPC: 0.776275 (Simulation time: 0 hr 55 min 36 sec) 
Heartbeat CPU 0 instructions: 20000000 cycles: 19081117 heartbeat IPC: 0.810686 cumulative IPC: 0.779584 (Simulation time: 0 hr 58 min 47 sec) 
Heartbeat CPU 0 instructions: 21000003 cycles: 20398505 heartbeat IPC: 0.75908 cumulative IPC: 0.777674 (Simulation time: 1 hr 1 min 48 sec) 
Heartbeat CPU 0 instructions: 22000003 cycles: 21725222 heartbeat IPC: 0.75374 cumulative IPC: 0.775622 (Simulation time: 1 hr 4 min 51 sec) 
Heartbeat CPU 0 instructions: 23000002 cycles: 22945744 heartbeat IPC: 0.819321 cumulative IPC: 0.778817 (Simulation time: 1 hr 7 min 57 sec) 
Heartbeat CPU 0 instructions: 24000000 cycles: 24157190 heartbeat IPC: 0.825458 cumulative IPC: 0.781973 (Simulation time: 1 hr 10 min 58 sec) 
Heartbeat CPU 0 instructions: 25000000 cycles: 25565052 heartbeat IPC: 0.710297 cumulative IPC: 0.776748 (Simulation time: 1 hr 13 min 50 sec) 
Heartbeat CPU 0 instructions: 26000000 cycles: 26789601 heartbeat IPC: 0.816627 cumulative IPC: 0.779126 (Simulation time: 1 hr 16 min 51 sec) 
Heartbeat CPU 0 instructions: 27000000 cycles: 28009853 heartbeat IPC: 0.819503 cumulative IPC: 0.78139 (Simulation time: 1 hr 19 min 54 sec) 
Heartbeat CPU 0 instructions: 28000000 cycles: 29419918 heartbeat IPC: 0.709187 cumulative IPC: 0.776995 (Simulation time: 1 hr 23 min 0 sec) 
Heartbeat CPU 0 instructions: 29000002 cycles: 30658255 heartbeat IPC: 0.807536 cumulative IPC: 0.778545 (Simulation time: 1 hr 25 min 49 sec) 
Heartbeat CPU 0 instructions: 30000002 cycles: 31881676 heartbeat IPC: 0.81738 cumulative IPC: 0.780399 (Simulation time: 1 hr 28 min 54 sec) 
Heartbeat CPU 0 instructions: 31000002 cycles: 33134065 heartbeat IPC: 0.798474 cumulative IPC: 0.781241 (Simulation time: 1 hr 31 min 41 sec) 
Heartbeat CPU 0 instructions: 32000000 cycles: 34503272 heartbeat IPC: 0.730348 cumulative IPC: 0.778774 (Simulation time: 1 hr 34 min 33 sec) 
Heartbeat CPU 0 instructions: 33000000 cycles: 35707382 heartbeat IPC: 0.830489 cumulative IPC: 0.780889 (Simulation time: 1 hr 37 min 24 sec) 
Heartbeat CPU 0 instructions: 34000000 cycles: 36918183 heartbeat IPC: 0.8259 cumulative IPC: 0.782666 (Simulation time: 1 hr 40 min 15 sec) 
Heartbeat CPU 0 instructions: 35000000 cycles: 38345314 heartbeat IPC: 0.700707 cumulative IPC: 0.779021 (Simulation time: 1 hr 43 min 4 sec) 
Heartbeat CPU 0 instructions: 36000000 cycles: 39579249 heartbeat IPC: 0.810415 cumulative IPC: 0.780184 (Simulation time: 1 hr 45 min 50 sec) 
Heartbeat CPU 0 instructions: 37000003 cycles: 40814249 heartbeat IPC: 0.809719 cumulative IPC: 0.781239 (Simulation time: 1 hr 48 min 50 sec) 
Heartbeat CPU 0 instructions: 38000003 cycles: 42152791 heartbeat IPC: 0.747082 cumulative IPC: 0.779965 (Simulation time: 1 hr 52 min 1 sec) 
Heartbeat CPU 0 instructions: 39000001 cycles: 43444069 heartbeat IPC: 0.774425 cumulative IPC: 0.779773 (Simulation time: 1 hr 54 min 54 sec) 
Heartbeat CPU 0 instructions: 40000000 cycles: 44667380 heartbeat IPC: 0.817453 cumulative IPC: 0.780973 (Simulation time: 1 hr 57 min 54 sec) 
Heartbeat CPU 0 instructions: 41000000 cycles: 45872050 heartbeat IPC: 0.830103 cumulative IPC: 0.782467 (Simulation time: 2 hr 0 min 43 sec) 
Heartbeat CPU 0 instructions: 42000000 cycles: 47292212 heartbeat IPC: 0.704145 cumulative IPC: 0.779756 (Simulation time: 2 hr 3 min 55 sec) 
Heartbeat CPU 0 instructions: 43000002 cycles: 48491175 heartbeat IPC: 0.834056 cumulative IPC: 0.781298 (Simulation time: 2 hr 7 min 9 sec) 
Heartbeat CPU 0 instructions: 44000000 cycles: 49707510 heartbeat IPC: 0.82214 cumulative IPC: 0.782441 (Simulation time: 2 hr 9 min 53 sec) 
Heartbeat CPU 0 instructions: 45000001 cycles: 51162338 heartbeat IPC: 0.687367 cumulative IPC: 0.779361 (Simulation time: 2 hr 12 min 48 sec) 
Heartbeat CPU 0 instructions: 46000001 cycles: 53145401 heartbeat IPC: 0.50427 cumulative IPC: 0.767727 (Simulation time: 2 hr 16 min 19 sec) 
Heartbeat CPU 0 instructions: 47000002 cycles: 55081470 heartbeat IPC: 0.516511 cumulative IPC: 0.757766 (Simulation time: 2 hr 19 min 57 sec) 
Heartbeat CPU 0 instructions: 48000000 cycles: 57057149 heartbeat IPC: 0.506154 cumulative IPC: 0.747982 (Simulation time: 2 hr 23 min 14 sec) 
Heartbeat CPU 0 instructions: 49000002 cycles: 59036957 heartbeat IPC: 0.5051 cumulative IPC: 0.738872 (Simulation time: 2 hr 26 min 5 sec) 
Heartbeat CPU 0 instructions: 50000002 cycles: 60989490 heartbeat IPC: 0.512155 cumulative IPC: 0.730784 (Simulation time: 2 hr 29 min 11 sec) 
Heartbeat CPU 0 instructions: 51000002 cycles: 62959966 heartbeat IPC: 0.507492 cumulative IPC: 0.723025 (Simulation time: 2 hr 32 min 18 sec) 
Heartbeat CPU 0 instructions: 52000000 cycles: 64900027 heartbeat IPC: 0.515447 cumulative IPC: 0.716158 (Simulation time: 2 hr 35 min 33 sec) 
Heartbeat CPU 0 instructions: 53000003 cycles: 66870191 heartbeat IPC: 0.507573 cumulative IPC: 0.709379 (Simulation time: 2 hr 38 min 27 sec) 
Heartbeat CPU 0 instructions: 54000003 cycles: 68845441 heartbeat IPC: 0.506265 cumulative IPC: 0.702969 (Simulation time: 2 hr 41 min 30 sec) 
Heartbeat CPU 0 instructions: 55000001 cycles: 70928235 heartbeat IPC: 0.480123 cumulative IPC: 0.695792 (Simulation time: 2 hr 44 min 18 sec) 
Heartbeat CPU 0 instructions: 56000000 cycles: 73210294 heartbeat IPC: 0.4382 cumulative IPC: 0.687013 (Simulation time: 2 hr 47 min 35 sec) 
Heartbeat CPU 0 instructions: 57000003 cycles: 75449756 heartbeat IPC: 0.446537 cumulative IPC: 0.67923 (Simulation time: 2 hr 50 min 49 sec) 
Heartbeat CPU 0 instructions: 58000001 cycles: 77766310 heartbeat IPC: 0.431675 cumulative IPC: 0.671211 (Simulation time: 2 hr 54 min 13 sec) 
Heartbeat CPU 0 instructions: 59000003 cycles: 80033269 heartbeat IPC: 0.44112 cumulative IPC: 0.664141 (Simulation time: 2 hr 57 min 37 sec) 
Heartbeat CPU 0 instructions: 60000000 cycles: 82326641 heartbeat IPC: 0.436038 cumulative IPC: 0.657264 (Simulation time: 3 hr 1 min 4 sec) 
Heartbeat CPU 0 instructions: 61000003 cycles: 84590059 heartbeat IPC: 0.441811 cumulative IPC: 0.651039 (Simulation time: 3 hr 4 min 24 sec) 
Heartbeat CPU 0 instructions: 62000001 cycles: 86850426 heartbeat IPC: 0.442405 cumulative IPC: 0.645188 (Simulation time: 3 hr 8 min 4 sec) 
Heartbeat CPU 0 instructions: 63000000 cycles: 88793390 heartbeat IPC: 0.514677 cumulative IPC: 0.642116 (Simulation time: 3 hr 11 min 10 sec) 
Heartbeat CPU 0 instructions: 64000000 cycles: 90111874 heartbeat IPC: 0.758447 cumulative IPC: 0.643945 (Simulation time: 3 hr 14 min 41 sec) 
Heartbeat CPU 0 instructions: 65000000 cycles: 91474677 heartbeat IPC: 0.733782 cumulative IPC: 0.645381 (Simulation time: 3 hr 17 min 40 sec) 
Heartbeat CPU 0 instructions: 66000002 cycles: 92826730 heartbeat IPC: 0.739617 cumulative IPC: 0.646853 (Simulation time: 3 hr 20 min 34 sec) 
Heartbeat CPU 0 instructions: 67000001 cycles: 94167341 heartbeat IPC: 0.745928 cumulative IPC: 0.648364 (Simulation time: 3 hr 23 min 18 sec) 
Heartbeat CPU 0 instructions: 68000000 cycles: 95544969 heartbeat IPC: 0.725885 cumulative IPC: 0.64956 (Simulation time: 3 hr 26 min 6 sec) 
Heartbeat CPU 0 instructions: 69000000 cycles: 96871005 heartbeat IPC: 0.754127 cumulative IPC: 0.65109 (Simulation time: 3 hr 29 min 1 sec) 
Heartbeat CPU 0 instructions: 70000000 cycles: 98232160 heartbeat IPC: 0.73467 cumulative IPC: 0.652327 (Simulation time: 3 hr 31 min 58 sec) 
Heartbeat CPU 0 instructions: 71000000 cycles: 99547584 heartbeat IPC: 0.760211 cumulative IPC: 0.653848 (Simulation time: 3 hr 34 min 37 sec) 
Heartbeat CPU 0 instructions: 72000000 cycles: 100884347 heartbeat IPC: 0.748076 cumulative IPC: 0.655179 (Simulation time: 3 hr 37 min 24 sec) 
Heartbeat CPU 0 instructions: 73000000 cycles: 102227320 heartbeat IPC: 0.744617 cumulative IPC: 0.656431 (Simulation time: 3 hr 40 min 12 sec) 
Heartbeat CPU 0 instructions: 74000000 cycles: 103544879 heartbeat IPC: 0.758979 cumulative IPC: 0.65782 (Simulation time: 3 hr 43 min 2 sec) 
Heartbeat CPU 0 instructions: 75000003 cycles: 104913148 heartbeat IPC: 0.730853 cumulative IPC: 0.658832 (Simulation time: 3 hr 46 min 2 sec) 
Heartbeat CPU 0 instructions: 76000000 cycles: 106245062 heartbeat IPC: 0.750797 cumulative IPC: 0.660057 (Simulation time: 3 hr 48 min 43 sec) 
Heartbeat CPU 0 instructions: 77000000 cycles: 107614218 heartbeat IPC: 0.730377 cumulative IPC: 0.661007 (Simulation time: 3 hr 51 min 47 sec) 
Heartbeat CPU 0 instructions: 78000001 cycles: 108963951 heartbeat IPC: 0.740888 cumulative IPC: 0.662057 (Simulation time: 3 hr 54 min 45 sec) 
Heartbeat CPU 0 instructions: 79000002 cycles: 110318948 heartbeat IPC: 0.73801 cumulative IPC: 0.663046 (Simulation time: 3 hr 57 min 27 sec) 
Heartbeat CPU 0 instructions: 80000000 cycles: 111697393 heartbeat IPC: 0.725454 cumulative IPC: 0.663862 (Simulation time: 4 hr 0 min 20 sec) 
Heartbeat CPU 0 instructions: 81000000 cycles: 113036623 heartbeat IPC: 0.746698 cumulative IPC: 0.664901 (Simulation time: 4 hr 2 min 58 sec) 
Heartbeat CPU 0 instructions: 82000003 cycles: 114417853 heartbeat IPC: 0.723995 cumulative IPC: 0.665655 (Simulation time: 4 hr 5 min 45 sec) 
Heartbeat CPU 0 instructions: 83000001 cycles: 115769934 heartbeat IPC: 0.739599 cumulative IPC: 0.666568 (Simulation time: 4 hr 8 min 25 sec) 
Heartbeat CPU 0 instructions: 84000000 cycles: 117125839 heartbeat IPC: 0.737514 cumulative IPC: 0.667436 (Simulation time: 4 hr 10 min 59 sec) 
Heartbeat CPU 0 instructions: 85000001 cycles: 118459374 heartbeat IPC: 0.749887 cumulative IPC: 0.668416 (Simulation time: 4 hr 13 min 33 sec) 
Heartbeat CPU 0 instructions: 86000003 cycles: 119794923 heartbeat IPC: 0.748757 cumulative IPC: 0.669361 (Simulation time: 4 hr 16 min 1 sec) 
Heartbeat CPU 0 instructions: 87000001 cycles: 121146074 heartbeat IPC: 0.740108 cumulative IPC: 0.670193 (Simulation time: 4 hr 18 min 18 sec) 
Heartbeat CPU 0 instructions: 88000000 cycles: 122496256 heartbeat IPC: 0.74064 cumulative IPC: 0.671011 (Simulation time: 4 hr 20 min 27 sec) 
Heartbeat CPU 0 instructions: 89000001 cycles: 123852671 heartbeat IPC: 0.737238 cumulative IPC: 0.671775 (Simulation time: 4 hr 22 min 35 sec) 
Heartbeat CPU 0 instructions: 90000002 cycles: 125200262 heartbeat IPC: 0.742066 cumulative IPC: 0.672571 (Simulation time: 4 hr 24 min 28 sec) 
Heartbeat CPU 0 instructions: 91000000 cycles: 126558671 heartbeat IPC: 0.736154 cumulative IPC: 0.673289 (Simulation time: 4 hr 26 min 20 sec) 
Heartbeat CPU 0 instructions: 92000000 cycles: 127898693 heartbeat IPC: 0.746256 cumulative IPC: 0.674093 (Simulation time: 4 hr 28 min 0 sec) 
Heartbeat CPU 0 instructions: 93000002 cycles: 129265793 heartbeat IPC: 0.731477 cumulative IPC: 0.674731 (Simulation time: 4 hr 29 min 40 sec) 
Heartbeat CPU 0 instructions: 94000000 cycles: 130592015 heartbeat IPC: 0.75402 cumulative IPC: 0.675576 (Simulation time: 4 hr 31 min 13 sec) 
Heartbeat CPU 0 instructions: 95000003 cycles: 131923190 heartbeat IPC: 0.751218 cumulative IPC: 0.676378 (Simulation time: 4 hr 32 min 43 sec) 
Heartbeat CPU 0 instructions: 96000000 cycles: 133283621 heartbeat IPC: 0.735059 cumulative IPC: 0.677006 (Simulation time: 4 hr 34 min 4 sec) 
Heartbeat CPU 0 instructions: 97000001 cycles: 134611498 heartbeat IPC: 0.753083 cumulative IPC: 0.677793 (Simulation time: 4 hr 35 min 26 sec) 
Heartbeat CPU 0 instructions: 98000002 cycles: 135972319 heartbeat IPC: 0.734851 cumulative IPC: 0.678392 (Simulation time: 4 hr 36 min 40 sec) 
Heartbeat CPU 0 instructions: 99000000 cycles: 137309313 heartbeat IPC: 0.747945 cumulative IPC: 0.679101 (Simulation time: 4 hr 38 min 0 sec) 
Heartbeat CPU 0 instructions: 100000000 cycles: 138688545 heartbeat IPC: 0.725041 cumulative IPC: 0.67958 (Simulation time: 4 hr 39 min 11 sec) 
Heartbeat CPU 0 instructions: 101000000 cycles: 140039564 heartbeat IPC: 0.740182 cumulative IPC: 0.680192 (Simulation time: 4 hr 40 min 16 sec) 
Heartbeat CPU 0 instructions: 102000001 cycles: 141383429 heartbeat IPC: 0.744123 cumulative IPC: 0.680828 (Simulation time: 4 hr 41 min 15 sec) 
Heartbeat CPU 0 instructions: 103000002 cycles: 142750900 heartbeat IPC: 0.731278 cumulative IPC: 0.681333 (Simulation time: 4 hr 42 min 3 sec) 
Heartbeat CPU 0 instructions: 104000000 cycles: 144075737 heartbeat IPC: 0.754808 cumulative IPC: 0.682039 (Simulation time: 4 hr 42 min 57 sec) 
Heartbeat CPU 0 instructions: 105000001 cycles: 145452833 heartbeat IPC: 0.726166 cumulative IPC: 0.682476 (Simulation time: 4 hr 43 min 47 sec) 
Heartbeat CPU 0 instructions: 106000002 cycles: 146788881 heartbeat IPC: 0.748477 cumulative IPC: 0.683103 (Simulation time: 4 hr 44 min 38 sec) 
Heartbeat CPU 0 instructions: 107000000 cycles: 148142898 heartbeat IPC: 0.738542 cumulative IPC: 0.683632 (Simulation time: 4 hr 45 min 26 sec) 
Heartbeat CPU 0 instructions: 108000000 cycles: 149479016 heartbeat IPC: 0.748437 cumulative IPC: 0.684237 (Simulation time: 4 hr 46 min 12 sec) 
Heartbeat CPU 0 instructions: 109000003 cycles: 150809768 heartbeat IPC: 0.751457 cumulative IPC: 0.684856 (Simulation time: 4 hr 46 min 57 sec) 
Heartbeat CPU 0 instructions: 110000001 cycles: 152174835 heartbeat IPC: 0.732563 cumulative IPC: 0.685302 (Simulation time: 4 hr 47 min 38 sec) 
Finished CPU 0 instructions: 100000000 cycles: 145921075 cummulative IPC: 0.685302 (Simulation time: 4 hr 47 min 38 sec) 

ChampSim completed all CPUs

Region of Interest Statistics

CPU 0 cummulative IPC: 0.685302 instructions: 100000000 cycles: 145921075
LLC TOTAL     ACCESS:    3757545  HIT:     704069  MISS:    3053476
LLC LOAD      ACCESS:     401392  HIT:      72455  MISS:     328937
LLC RFO       ACCESS:     463727  HIT:     188530  MISS:     275197
LLC PREFETCH  ACCESS:    2143298  HIT:     193083  MISS:    1950215
LLC WRITEBACK ACCESS:     749128  HIT:     250001  MISS:     499127
