
*** ChampSim Multicore Out-of-Order Simulator ***

Warmup Instructions: 10000000
Simulation Instructions: 100000000
Configuration: 2
Number of CPUs: 1
LLC sets: 2048
LLC ways: 16
Off-chip DRAM Channels: 1 Width: 64-bit Data Rate: 1600 MT/s

CPU 0 runs /datasets/cs240c-wi22-a00-public/data/Assignment2-gz/perlbench_53B.trace.gz
CPU 0 L1D next line prefetcher
CPU 0 L2C IP-based stride prefetcher
config 2, num_core 1, llc_sets 2048
Heartbeat CPU 0 instructions: 1000000 cycles: 616120 heartbeat IPC: 1.62306 cumulative IPC: 1.62306 (Simulation time: 0 hr 3 min 8 sec) 
Heartbeat CPU 0 instructions: 2000001 cycles: 1253421 heartbeat IPC: 1.56912 cumulative IPC: 1.59563 (Simulation time: 0 hr 6 min 17 sec) 
Heartbeat CPU 0 instructions: 3000002 cycles: 1909003 heartbeat IPC: 1.52536 cumulative IPC: 1.5715 (Simulation time: 0 hr 9 min 16 sec) 
Heartbeat CPU 0 instructions: 4000000 cycles: 2524862 heartbeat IPC: 1.62375 cumulative IPC: 1.58424 (Simulation time: 0 hr 12 min 3 sec) 
Heartbeat CPU 0 instructions: 5000001 cycles: 3153178 heartbeat IPC: 1.59156 cumulative IPC: 1.5857 (Simulation time: 0 hr 14 min 49 sec) 
Heartbeat CPU 0 instructions: 6000001 cycles: 3768807 heartbeat IPC: 1.62435 cumulative IPC: 1.59202 (Simulation time: 0 hr 17 min 41 sec) 
Heartbeat CPU 0 instructions: 7000002 cycles: 4392377 heartbeat IPC: 1.60367 cumulative IPC: 1.59367 (Simulation time: 0 hr 20 min 32 sec) 
Heartbeat CPU 0 instructions: 8000000 cycles: 5002872 heartbeat IPC: 1.63801 cumulative IPC: 1.59908 (Simulation time: 0 hr 23 min 11 sec) 
Heartbeat CPU 0 instructions: 9000000 cycles: 5654641 heartbeat IPC: 1.53429 cumulative IPC: 1.59161 (Simulation time: 0 hr 25 min 49 sec) 
Heartbeat CPU 0 instructions: 10000001 cycles: 6290245 heartbeat IPC: 1.57331 cumulative IPC: 1.58976 (Simulation time: 0 hr 28 min 39 sec) 

Warmup complete CPU 0 instructions: 10000001 cycles: 6290245 (Simulation time: 0 hr 28 min 39 sec) 

Heartbeat CPU 0 instructions: 11000000 cycles: 9161661 heartbeat IPC: 0.34826 cumulative IPC: 0.34826 (Simulation time: 0 hr 31 min 34 sec) 
Heartbeat CPU 0 instructions: 12000000 cycles: 12035492 heartbeat IPC: 0.347968 cumulative IPC: 0.348114 (Simulation time: 0 hr 34 min 46 sec) 
Heartbeat CPU 0 instructions: 13000000 cycles: 14393426 heartbeat IPC: 0.4241 cumulative IPC: 0.370225 (Simulation time: 0 hr 37 min 55 sec) 
Heartbeat CPU 0 instructions: 14000000 cycles: 16908108 heartbeat IPC: 0.397665 cumulative IPC: 0.376724 (Simulation time: 0 hr 41 min 2 sec) 
Heartbeat CPU 0 instructions: 15000001 cycles: 19664119 heartbeat IPC: 0.362844 cumulative IPC: 0.373863 (Simulation time: 0 hr 43 min 57 sec) 
Heartbeat CPU 0 instructions: 16000000 cycles: 22328887 heartbeat IPC: 0.375267 cumulative IPC: 0.374096 (Simulation time: 0 hr 47 min 7 sec) 
Heartbeat CPU 0 instructions: 17000001 cycles: 25002104 heartbeat IPC: 0.374081 cumulative IPC: 0.374094 (Simulation time: 0 hr 50 min 13 sec) 
Heartbeat CPU 0 instructions: 18000002 cycles: 27854233 heartbeat IPC: 0.350616 cumulative IPC: 0.370989 (Simulation time: 0 hr 53 min 26 sec) 
Heartbeat CPU 0 instructions: 19000000 cycles: 30677230 heartbeat IPC: 0.354233 cumulative IPC: 0.369049 (Simulation time: 0 hr 56 min 29 sec) 
Heartbeat CPU 0 instructions: 20000000 cycles: 33529826 heartbeat IPC: 0.350558 cumulative IPC: 0.367113 (Simulation time: 0 hr 59 min 45 sec) 
Heartbeat CPU 0 instructions: 21000000 cycles: 35890118 heartbeat IPC: 0.423676 cumulative IPC: 0.371623 (Simulation time: 1 hr 3 min 4 sec) 
Heartbeat CPU 0 instructions: 22000000 cycles: 37967589 heartbeat IPC: 0.481355 cumulative IPC: 0.37882 (Simulation time: 1 hr 6 min 19 sec) 
Heartbeat CPU 0 instructions: 23000001 cycles: 39899215 heartbeat IPC: 0.517699 cumulative IPC: 0.386802 (Simulation time: 1 hr 9 min 9 sec) 
Heartbeat CPU 0 instructions: 24000000 cycles: 42296322 heartbeat IPC: 0.417169 cumulative IPC: 0.388823 (Simulation time: 1 hr 12 min 28 sec) 
Heartbeat CPU 0 instructions: 25000000 cycles: 44308045 heartbeat IPC: 0.497086 cumulative IPC: 0.394552 (Simulation time: 1 hr 15 min 10 sec) 
Heartbeat CPU 0 instructions: 26000001 cycles: 46292653 heartbeat IPC: 0.503878 cumulative IPC: 0.399976 (Simulation time: 1 hr 17 min 52 sec) 
Heartbeat CPU 0 instructions: 27000002 cycles: 48587374 heartbeat IPC: 0.435783 cumulative IPC: 0.401919 (Simulation time: 1 hr 21 min 4 sec) 
Heartbeat CPU 0 instructions: 28000000 cycles: 51154355 heartbeat IPC: 0.389562 cumulative IPC: 0.401212 (Simulation time: 1 hr 24 min 22 sec) 
Heartbeat CPU 0 instructions: 29000000 cycles: 53474349 heartbeat IPC: 0.431036 cumulative IPC: 0.402678 (Simulation time: 1 hr 27 min 51 sec) 
Heartbeat CPU 0 instructions: 30000000 cycles: 55517840 heartbeat IPC: 0.489359 cumulative IPC: 0.406276 (Simulation time: 1 hr 31 min 16 sec) 
Heartbeat CPU 0 instructions: 31000001 cycles: 57505099 heartbeat IPC: 0.503206 cumulative IPC: 0.410037 (Simulation time: 1 hr 34 min 7 sec) 
Heartbeat CPU 0 instructions: 32000000 cycles: 59502667 heartbeat IPC: 0.500608 cumulative IPC: 0.413437 (Simulation time: 1 hr 37 min 24 sec) 
Heartbeat CPU 0 instructions: 33000003 cycles: 61953017 heartbeat IPC: 0.408106 cumulative IPC: 0.413203 (Simulation time: 1 hr 40 min 15 sec) 
Heartbeat CPU 0 instructions: 34000000 cycles: 64648043 heartbeat IPC: 0.371053 cumulative IPC: 0.411256 (Simulation time: 1 hr 43 min 35 sec) 
Heartbeat CPU 0 instructions: 35000000 cycles: 67197393 heartbeat IPC: 0.392257 cumulative IPC: 0.410461 (Simulation time: 1 hr 46 min 49 sec) 
Heartbeat CPU 0 instructions: 36000000 cycles: 69988793 heartbeat IPC: 0.358243 cumulative IPC: 0.408173 (Simulation time: 1 hr 49 min 59 sec) 
Heartbeat CPU 0 instructions: 37000002 cycles: 72825385 heartbeat IPC: 0.352536 cumulative IPC: 0.405801 (Simulation time: 1 hr 52 min 55 sec) 
Heartbeat CPU 0 instructions: 38000000 cycles: 75698499 heartbeat IPC: 0.348054 cumulative IPC: 0.40341 (Simulation time: 1 hr 55 min 55 sec) 
Heartbeat CPU 0 instructions: 39000001 cycles: 78366550 heartbeat IPC: 0.374806 cumulative IPC: 0.402351 (Simulation time: 1 hr 59 min 4 sec) 
Heartbeat CPU 0 instructions: 40000000 cycles: 80964957 heartbeat IPC: 0.384851 cumulative IPC: 0.401742 (Simulation time: 2 hr 2 min 18 sec) 
Heartbeat CPU 0 instructions: 41000002 cycles: 83829156 heartbeat IPC: 0.349138 cumulative IPC: 0.399799 (Simulation time: 2 hr 5 min 23 sec) 
Heartbeat CPU 0 instructions: 42000000 cycles: 86433557 heartbeat IPC: 0.383965 cumulative IPC: 0.399285 (Simulation time: 2 hr 8 min 29 sec) 
Heartbeat CPU 0 instructions: 43000002 cycles: 89258751 heartbeat IPC: 0.353959 cumulative IPC: 0.397741 (Simulation time: 2 hr 11 min 19 sec) 
Heartbeat CPU 0 instructions: 44000000 cycles: 91925329 heartbeat IPC: 0.375012 cumulative IPC: 0.397034 (Simulation time: 2 hr 14 min 49 sec) 
Heartbeat CPU 0 instructions: 45000001 cycles: 93387242 heartbeat IPC: 0.684036 cumulative IPC: 0.401851 (Simulation time: 2 hr 17 min 23 sec) 
Heartbeat CPU 0 instructions: 46000000 cycles: 95410647 heartbeat IPC: 0.494216 cumulative IPC: 0.403948 (Simulation time: 2 hr 20 min 28 sec) 
Heartbeat CPU 0 instructions: 47000002 cycles: 97326050 heartbeat IPC: 0.522084 cumulative IPC: 0.406433 (Simulation time: 2 hr 23 min 10 sec) 
Heartbeat CPU 0 instructions: 48000000 cycles: 99246265 heartbeat IPC: 0.520774 cumulative IPC: 0.408795 (Simulation time: 2 hr 25 min 52 sec) 
Heartbeat CPU 0 instructions: 49000000 cycles: 101593367 heartbeat IPC: 0.426057 cumulative IPC: 0.409221 (Simulation time: 2 hr 28 min 44 sec) 
Heartbeat CPU 0 instructions: 50000002 cycles: 103457659 heartbeat IPC: 0.536398 cumulative IPC: 0.411661 (Simulation time: 2 hr 31 min 39 sec) 
Heartbeat CPU 0 instructions: 51000000 cycles: 105388901 heartbeat IPC: 0.5178 cumulative IPC: 0.413729 (Simulation time: 2 hr 34 min 15 sec) 
Heartbeat CPU 0 instructions: 52000000 cycles: 107303906 heartbeat IPC: 0.522192 cumulative IPC: 0.415785 (Simulation time: 2 hr 36 min 56 sec) 
Heartbeat CPU 0 instructions: 53000002 cycles: 109254650 heartbeat IPC: 0.512626 cumulative IPC: 0.41762 (Simulation time: 2 hr 39 min 58 sec) 
Heartbeat CPU 0 instructions: 54000000 cycles: 112140234 heartbeat IPC: 0.34655 cumulative IPC: 0.415683 (Simulation time: 2 hr 43 min 4 sec) 
Heartbeat CPU 0 instructions: 55000000 cycles: 114628427 heartbeat IPC: 0.401898 cumulative IPC: 0.415366 (Simulation time: 2 hr 46 min 6 sec) 
Heartbeat CPU 0 instructions: 56000000 cycles: 117427868 heartbeat IPC: 0.357214 cumulative IPC: 0.413901 (Simulation time: 2 hr 49 min 21 sec) 
Heartbeat CPU 0 instructions: 57000001 cycles: 120411745 heartbeat IPC: 0.335135 cumulative IPC: 0.411842 (Simulation time: 2 hr 52 min 29 sec) 
Heartbeat CPU 0 instructions: 58000003 cycles: 123380856 heartbeat IPC: 0.336802 cumulative IPC: 0.409939 (Simulation time: 2 hr 55 min 57 sec) 
Heartbeat CPU 0 instructions: 59000002 cycles: 126209326 heartbeat IPC: 0.353548 cumulative IPC: 0.408609 (Simulation time: 2 hr 58 min 46 sec) 
Heartbeat CPU 0 instructions: 60000000 cycles: 128990895 heartbeat IPC: 0.359509 cumulative IPC: 0.407496 (Simulation time: 3 hr 1 min 32 sec) 
Heartbeat CPU 0 instructions: 61000002 cycles: 131642442 heartbeat IPC: 0.377139 cumulative IPC: 0.406854 (Simulation time: 3 hr 4 min 37 sec) 
Heartbeat CPU 0 instructions: 62000002 cycles: 134344792 heartbeat IPC: 0.370048 cumulative IPC: 0.406077 (Simulation time: 3 hr 7 min 46 sec) 
Heartbeat CPU 0 instructions: 63000001 cycles: 137027574 heartbeat IPC: 0.372747 cumulative IPC: 0.405393 (Simulation time: 3 hr 10 min 54 sec) 
Heartbeat CPU 0 instructions: 64000000 cycles: 139698120 heartbeat IPC: 0.374455 cumulative IPC: 0.404774 (Simulation time: 3 hr 14 min 38 sec) 
Heartbeat CPU 0 instructions: 65000003 cycles: 142346723 heartbeat IPC: 0.377559 cumulative IPC: 0.404244 (Simulation time: 3 hr 18 min 22 sec) 
Heartbeat CPU 0 instructions: 66000001 cycles: 144986417 heartbeat IPC: 0.378831 cumulative IPC: 0.40376 (Simulation time: 3 hr 22 min 14 sec) 
Heartbeat CPU 0 instructions: 67000001 cycles: 147602159 heartbeat IPC: 0.382301 cumulative IPC: 0.403363 (Simulation time: 3 hr 25 min 46 sec) 
Heartbeat CPU 0 instructions: 68000000 cycles: 150282761 heartbeat IPC: 0.37305 cumulative IPC: 0.402799 (Simulation time: 3 hr 29 min 33 sec) 
Heartbeat CPU 0 instructions: 69000001 cycles: 152927531 heartbeat IPC: 0.378105 cumulative IPC: 0.402353 (Simulation time: 3 hr 33 min 20 sec) 
Heartbeat CPU 0 instructions: 70000001 cycles: 155545172 heartbeat IPC: 0.382023 cumulative IPC: 0.401997 (Simulation time: 3 hr 36 min 51 sec) 
Heartbeat CPU 0 instructions: 71000001 cycles: 158265873 heartbeat IPC: 0.367552 cumulative IPC: 0.40138 (Simulation time: 3 hr 40 min 30 sec) 
Heartbeat CPU 0 instructions: 72000000 cycles: 160872245 heartbeat IPC: 0.383675 cumulative IPC: 0.401082 (Simulation time: 3 hr 43 min 55 sec) 
Heartbeat CPU 0 instructions: 73000002 cycles: 163523995 heartbeat IPC: 0.37711 cumulative IPC: 0.400677 (Simulation time: 3 hr 47 min 22 sec) 
Heartbeat CPU 0 instructions: 74000001 cycles: 166204560 heartbeat IPC: 0.373055 cumulative IPC: 0.400214 (Simulation time: 3 hr 50 min 29 sec) 
Heartbeat CPU 0 instructions: 75000001 cycles: 168867937 heartbeat IPC: 0.375463 cumulative IPC: 0.399809 (Simulation time: 3 hr 53 min 9 sec) 
Heartbeat CPU 0 instructions: 76000000 cycles: 171514335 heartbeat IPC: 0.377872 cumulative IPC: 0.399457 (Simulation time: 3 hr 55 min 57 sec) 
Heartbeat CPU 0 instructions: 77000002 cycles: 174190118 heartbeat IPC: 0.373723 cumulative IPC: 0.399047 (Simulation time: 3 hr 58 min 48 sec) 
Heartbeat CPU 0 instructions: 78000000 cycles: 176845986 heartbeat IPC: 0.376524 cumulative IPC: 0.398697 (Simulation time: 4 hr 1 min 41 sec) 
Heartbeat CPU 0 instructions: 79000002 cycles: 179509503 heartbeat IPC: 0.375444 cumulative IPC: 0.398339 (Simulation time: 4 hr 4 min 22 sec) 
Heartbeat CPU 0 instructions: 80000000 cycles: 182146275 heartbeat IPC: 0.379251 cumulative IPC: 0.398053 (Simulation time: 4 hr 7 min 3 sec) 
Heartbeat CPU 0 instructions: 81000000 cycles: 184761379 heartbeat IPC: 0.382394 cumulative IPC: 0.397823 (Simulation time: 4 hr 9 min 47 sec) 
Heartbeat CPU 0 instructions: 82000002 cycles: 187441336 heartbeat IPC: 0.373141 cumulative IPC: 0.397458 (Simulation time: 4 hr 12 min 28 sec) 
Heartbeat CPU 0 instructions: 83000000 cycles: 190090283 heartbeat IPC: 0.377508 cumulative IPC: 0.397171 (Simulation time: 4 hr 15 min 11 sec) 
Heartbeat CPU 0 instructions: 84000000 cycles: 192749845 heartbeat IPC: 0.376002 cumulative IPC: 0.396869 (Simulation time: 4 hr 17 min 28 sec) 
Heartbeat CPU 0 instructions: 85000001 cycles: 195427479 heartbeat IPC: 0.373464 cumulative IPC: 0.396537 (Simulation time: 4 hr 19 min 52 sec) 
Heartbeat CPU 0 instructions: 86000000 cycles: 197922195 heartbeat IPC: 0.400847 cumulative IPC: 0.396594 (Simulation time: 4 hr 22 min 9 sec) 
Heartbeat CPU 0 instructions: 87000000 cycles: 200056810 heartbeat IPC: 0.468469 cumulative IPC: 0.397385 (Simulation time: 4 hr 24 min 0 sec) 
Heartbeat CPU 0 instructions: 88000000 cycles: 202054470 heartbeat IPC: 0.500586 cumulative IPC: 0.398438 (Simulation time: 4 hr 25 min 40 sec) 
Heartbeat CPU 0 instructions: 89000001 cycles: 204133369 heartbeat IPC: 0.481024 cumulative IPC: 0.399306 (Simulation time: 4 hr 27 min 15 sec) 
Heartbeat CPU 0 instructions: 90000000 cycles: 206795871 heartbeat IPC: 0.375586 cumulative IPC: 0.398991 (Simulation time: 4 hr 29 min 15 sec) 
Heartbeat CPU 0 instructions: 91000001 cycles: 209558041 heartbeat IPC: 0.362035 cumulative IPC: 0.398489 (Simulation time: 4 hr 31 min 8 sec) 
Heartbeat CPU 0 instructions: 92000000 cycles: 212242557 heartbeat IPC: 0.372506 cumulative IPC: 0.39815 (Simulation time: 4 hr 32 min 46 sec) 
Heartbeat CPU 0 instructions: 93000000 cycles: 214899752 heartbeat IPC: 0.376337 cumulative IPC: 0.397873 (Simulation time: 4 hr 34 min 13 sec) 
Heartbeat CPU 0 instructions: 94000002 cycles: 217550093 heartbeat IPC: 0.377311 cumulative IPC: 0.397615 (Simulation time: 4 hr 35 min 36 sec) 
Heartbeat CPU 0 instructions: 95000000 cycles: 220174266 heartbeat IPC: 0.381072 cumulative IPC: 0.397412 (Simulation time: 4 hr 36 min 54 sec) 
Heartbeat CPU 0 instructions: 96000000 cycles: 222842753 heartbeat IPC: 0.374744 cumulative IPC: 0.397132 (Simulation time: 4 hr 38 min 19 sec) 
Heartbeat CPU 0 instructions: 97000000 cycles: 225485112 heartbeat IPC: 0.37845 cumulative IPC: 0.396907 (Simulation time: 4 hr 39 min 34 sec) 
Heartbeat CPU 0 instructions: 98000000 cycles: 228109201 heartbeat IPC: 0.381085 cumulative IPC: 0.39672 (Simulation time: 4 hr 40 min 42 sec) 
Heartbeat CPU 0 instructions: 99000002 cycles: 230720334 heartbeat IPC: 0.382976 cumulative IPC: 0.39656 (Simulation time: 4 hr 41 min 39 sec) 
Heartbeat CPU 0 instructions: 100000000 cycles: 233347899 heartbeat IPC: 0.38058 cumulative IPC: 0.396375 (Simulation time: 4 hr 42 min 34 sec) 
Heartbeat CPU 0 instructions: 101000002 cycles: 236005035 heartbeat IPC: 0.376346 cumulative IPC: 0.396143 (Simulation time: 4 hr 43 min 24 sec) 
Heartbeat CPU 0 instructions: 102000000 cycles: 238640965 heartbeat IPC: 0.379372 cumulative IPC: 0.395953 (Simulation time: 4 hr 44 min 13 sec) 
Heartbeat CPU 0 instructions: 103000000 cycles: 241268945 heartbeat IPC: 0.38052 cumulative IPC: 0.395781 (Simulation time: 4 hr 44 min 58 sec) 
Heartbeat CPU 0 instructions: 104000000 cycles: 243931579 heartbeat IPC: 0.375568 cumulative IPC: 0.395554 (Simulation time: 4 hr 45 min 48 sec) 
Heartbeat CPU 0 instructions: 105000003 cycles: 246111908 heartbeat IPC: 0.458648 cumulative IPC: 0.396128 (Simulation time: 4 hr 46 min 25 sec) 
Heartbeat CPU 0 instructions: 106000000 cycles: 248089282 heartbeat IPC: 0.50572 cumulative IPC: 0.397024 (Simulation time: 4 hr 47 min 7 sec) 
Heartbeat CPU 0 instructions: 107000003 cycles: 250064980 heartbeat IPC: 0.506152 cumulative IPC: 0.397908 (Simulation time: 4 hr 47 min 38 sec) 
Heartbeat CPU 0 instructions: 108000000 cycles: 252778738 heartbeat IPC: 0.368492 cumulative IPC: 0.397584 (Simulation time: 4 hr 48 min 8 sec) 
Heartbeat CPU 0 instructions: 109000001 cycles: 255476371 heartbeat IPC: 0.370696 cumulative IPC: 0.397293 (Simulation time: 4 hr 48 min 35 sec) 
Heartbeat CPU 0 instructions: 110000000 cycles: 257982695 heartbeat IPC: 0.39899 cumulative IPC: 0.39731 (Simulation time: 4 hr 49 min 4 sec) 
Finished CPU 0 instructions: 100000000 cycles: 251692451 cummulative IPC: 0.39731 (Simulation time: 4 hr 49 min 4 sec) 

ChampSim completed all CPUs

Region of Interest Statistics

CPU 0 cummulative IPC: 0.39731 instructions: 100000000 cycles: 251692451
LLC TOTAL     ACCESS:     656694  HIT:     588006  MISS:      68688
LLC LOAD      ACCESS:     310901  HIT:     303649  MISS:       7252
LLC RFO       ACCESS:      30803  HIT:      26994  MISS:       3809
LLC PREFETCH  ACCESS:     212707  HIT:     157952  MISS:      54755
LLC WRITEBACK ACCESS:     102283  HIT:      99411  MISS:       2872
