
*** ChampSim Multicore Out-of-Order Simulator ***

Warmup Instructions: 10000000
Simulation Instructions: 100000000
Configuration: 2
Number of CPUs: 1
LLC sets: 2048
LLC ways: 16
Off-chip DRAM Channels: 1 Width: 64-bit Data Rate: 1600 MT/s

CPU 0 runs /datasets/cs240c-wi22-a00-public/data/Assignment2-gz/leslie3d_94B.trace.gz
CPU 0 L1D next line prefetcher
CPU 0 L2C IP-based stride prefetcher
config 2, num_core 1, llc_sets 2048
Heartbeat CPU 0 instructions: 1000003 cycles: 597052 heartbeat IPC: 1.6749 cumulative IPC: 1.6749 (Simulation time: 0 hr 2 min 52 sec) 
Heartbeat CPU 0 instructions: 2000002 cycles: 1215952 heartbeat IPC: 1.61577 cumulative IPC: 1.6448 (Simulation time: 0 hr 5 min 35 sec) 
Heartbeat CPU 0 instructions: 3000002 cycles: 1867791 heartbeat IPC: 1.53412 cumulative IPC: 1.60618 (Simulation time: 0 hr 8 min 27 sec) 
Heartbeat CPU 0 instructions: 4000000 cycles: 2519084 heartbeat IPC: 1.5354 cumulative IPC: 1.58788 (Simulation time: 0 hr 11 min 24 sec) 
Heartbeat CPU 0 instructions: 5000002 cycles: 3084077 heartbeat IPC: 1.76994 cumulative IPC: 1.62123 (Simulation time: 0 hr 13 min 58 sec) 
Heartbeat CPU 0 instructions: 6000002 cycles: 3734813 heartbeat IPC: 1.53672 cumulative IPC: 1.60651 (Simulation time: 0 hr 16 min 50 sec) 
Heartbeat CPU 0 instructions: 7000000 cycles: 4385617 heartbeat IPC: 1.53656 cumulative IPC: 1.59613 (Simulation time: 0 hr 19 min 42 sec) 
Heartbeat CPU 0 instructions: 8000000 cycles: 4950646 heartbeat IPC: 1.76982 cumulative IPC: 1.61595 (Simulation time: 0 hr 22 min 16 sec) 
Heartbeat CPU 0 instructions: 9000000 cycles: 5601613 heartbeat IPC: 1.53618 cumulative IPC: 1.60668 (Simulation time: 0 hr 25 min 6 sec) 
Heartbeat CPU 0 instructions: 10000001 cycles: 6252906 heartbeat IPC: 1.53541 cumulative IPC: 1.59926 (Simulation time: 0 hr 27 min 54 sec) 

Warmup complete CPU 0 instructions: 10000001 cycles: 6252906 (Simulation time: 0 hr 27 min 54 sec) 

Heartbeat CPU 0 instructions: 11000000 cycles: 7498500 heartbeat IPC: 0.802829 cumulative IPC: 0.802829 (Simulation time: 0 hr 31 min 2 sec) 
Heartbeat CPU 0 instructions: 12000000 cycles: 9371927 heartbeat IPC: 0.533781 cumulative IPC: 0.641227 (Simulation time: 0 hr 33 min 59 sec) 
Heartbeat CPU 0 instructions: 13000000 cycles: 11360710 heartbeat IPC: 0.50282 cumulative IPC: 0.587336 (Simulation time: 0 hr 37 min 58 sec) 
Heartbeat CPU 0 instructions: 14000001 cycles: 13345187 heartbeat IPC: 0.503912 cumulative IPC: 0.563993 (Simulation time: 0 hr 41 min 42 sec) 
Heartbeat CPU 0 instructions: 15000001 cycles: 15343816 heartbeat IPC: 0.500343 cumulative IPC: 0.55 (Simulation time: 0 hr 45 min 14 sec) 
Heartbeat CPU 0 instructions: 16000000 cycles: 17344254 heartbeat IPC: 0.49989 cumulative IPC: 0.540962 (Simulation time: 0 hr 48 min 43 sec) 
Heartbeat CPU 0 instructions: 17000000 cycles: 19293956 heartbeat IPC: 0.512899 cumulative IPC: 0.536767 (Simulation time: 0 hr 52 min 2 sec) 
Heartbeat CPU 0 instructions: 18000002 cycles: 21283966 heartbeat IPC: 0.502511 cumulative IPC: 0.532231 (Simulation time: 0 hr 55 min 28 sec) 
Heartbeat CPU 0 instructions: 19000001 cycles: 23294917 heartbeat IPC: 0.497277 cumulative IPC: 0.528107 (Simulation time: 0 hr 58 min 55 sec) 
Heartbeat CPU 0 instructions: 20000000 cycles: 25286329 heartbeat IPC: 0.502156 cumulative IPC: 0.525392 (Simulation time: 1 hr 2 min 33 sec) 
Heartbeat CPU 0 instructions: 21000002 cycles: 27251201 heartbeat IPC: 0.50894 cumulative IPC: 0.523852 (Simulation time: 1 hr 6 min 16 sec) 
Heartbeat CPU 0 instructions: 22000002 cycles: 29507957 heartbeat IPC: 0.443114 cumulative IPC: 0.516017 (Simulation time: 1 hr 9 min 50 sec) 
Heartbeat CPU 0 instructions: 23000000 cycles: 31749037 heartbeat IPC: 0.446213 cumulative IPC: 0.509881 (Simulation time: 1 hr 13 min 6 sec) 
Heartbeat CPU 0 instructions: 24000000 cycles: 33996687 heartbeat IPC: 0.444909 cumulative IPC: 0.504618 (Simulation time: 1 hr 16 min 30 sec) 
Heartbeat CPU 0 instructions: 25000000 cycles: 36241561 heartbeat IPC: 0.445459 cumulative IPC: 0.500189 (Simulation time: 1 hr 19 min 55 sec) 
Heartbeat CPU 0 instructions: 26000002 cycles: 38517756 heartbeat IPC: 0.439331 cumulative IPC: 0.495896 (Simulation time: 1 hr 23 min 37 sec) 
Heartbeat CPU 0 instructions: 27000001 cycles: 40865268 heartbeat IPC: 0.425982 cumulative IPC: 0.491154 (Simulation time: 1 hr 27 min 50 sec) 
Heartbeat CPU 0 instructions: 28000000 cycles: 43173446 heartbeat IPC: 0.433242 cumulative IPC: 0.487533 (Simulation time: 1 hr 31 min 44 sec) 
Heartbeat CPU 0 instructions: 29000000 cycles: 45394911 heartbeat IPC: 0.450153 cumulative IPC: 0.485412 (Simulation time: 1 hr 35 min 51 sec) 
Heartbeat CPU 0 instructions: 30000000 cycles: 46795036 heartbeat IPC: 0.714222 cumulative IPC: 0.493314 (Simulation time: 1 hr 39 min 8 sec) 
Heartbeat CPU 0 instructions: 31000002 cycles: 48133747 heartbeat IPC: 0.746989 cumulative IPC: 0.501423 (Simulation time: 1 hr 42 min 23 sec) 
Heartbeat CPU 0 instructions: 32000000 cycles: 49488469 heartbeat IPC: 0.738157 cumulative IPC: 0.50884 (Simulation time: 1 hr 45 min 30 sec) 
Heartbeat CPU 0 instructions: 33000001 cycles: 50830351 heartbeat IPC: 0.745223 cumulative IPC: 0.515956 (Simulation time: 1 hr 48 min 42 sec) 
Heartbeat CPU 0 instructions: 34000003 cycles: 52186944 heartbeat IPC: 0.737142 cumulative IPC: 0.522488 (Simulation time: 1 hr 51 min 48 sec) 
Heartbeat CPU 0 instructions: 35000000 cycles: 53523860 heartbeat IPC: 0.747988 cumulative IPC: 0.528866 (Simulation time: 1 hr 54 min 37 sec) 
Heartbeat CPU 0 instructions: 36000000 cycles: 54903860 heartbeat IPC: 0.724638 cumulative IPC: 0.534419 (Simulation time: 1 hr 57 min 37 sec) 
Heartbeat CPU 0 instructions: 37000003 cycles: 56266347 heartbeat IPC: 0.733954 cumulative IPC: 0.539855 (Simulation time: 2 hr 0 min 45 sec) 
Heartbeat CPU 0 instructions: 38000000 cycles: 57619107 heartbeat IPC: 0.739227 cumulative IPC: 0.545106 (Simulation time: 2 hr 3 min 49 sec) 
Heartbeat CPU 0 instructions: 39000001 cycles: 58967428 heartbeat IPC: 0.741664 cumulative IPC: 0.550133 (Simulation time: 2 hr 6 min 55 sec) 
Heartbeat CPU 0 instructions: 40000000 cycles: 60292609 heartbeat IPC: 0.754613 cumulative IPC: 0.555147 (Simulation time: 2 hr 9 min 52 sec) 
Heartbeat CPU 0 instructions: 41000002 cycles: 61661593 heartbeat IPC: 0.73047 cumulative IPC: 0.559479 (Simulation time: 2 hr 12 min 47 sec) 
Heartbeat CPU 0 instructions: 42000002 cycles: 63011108 heartbeat IPC: 0.741007 cumulative IPC: 0.563795 (Simulation time: 2 hr 15 min 34 sec) 
Heartbeat CPU 0 instructions: 43000002 cycles: 64385842 heartbeat IPC: 0.727413 cumulative IPC: 0.567664 (Simulation time: 2 hr 18 min 22 sec) 
Heartbeat CPU 0 instructions: 44000000 cycles: 65730590 heartbeat IPC: 0.743632 cumulative IPC: 0.571643 (Simulation time: 2 hr 21 min 14 sec) 
Heartbeat CPU 0 instructions: 45000003 cycles: 67103730 heartbeat IPC: 0.72826 cumulative IPC: 0.575177 (Simulation time: 2 hr 23 min 54 sec) 
Heartbeat CPU 0 instructions: 46000001 cycles: 68515462 heartbeat IPC: 0.708348 cumulative IPC: 0.578197 (Simulation time: 2 hr 26 min 30 sec) 
Heartbeat CPU 0 instructions: 47000000 cycles: 69858522 heartbeat IPC: 0.744568 cumulative IPC: 0.58171 (Simulation time: 2 hr 29 min 16 sec) 
Heartbeat CPU 0 instructions: 48000000 cycles: 71247196 heartbeat IPC: 0.720111 cumulative IPC: 0.584667 (Simulation time: 2 hr 32 min 9 sec) 
Heartbeat CPU 0 instructions: 49000001 cycles: 72592246 heartbeat IPC: 0.743468 cumulative IPC: 0.587886 (Simulation time: 2 hr 35 min 6 sec) 
Heartbeat CPU 0 instructions: 50000001 cycles: 73963088 heartbeat IPC: 0.729479 cumulative IPC: 0.590753 (Simulation time: 2 hr 37 min 43 sec) 
Heartbeat CPU 0 instructions: 51000003 cycles: 75308356 heartbeat IPC: 0.743348 cumulative IPC: 0.593726 (Simulation time: 2 hr 40 min 30 sec) 
Heartbeat CPU 0 instructions: 52000000 cycles: 76636519 heartbeat IPC: 0.752917 cumulative IPC: 0.59673 (Simulation time: 2 hr 43 min 7 sec) 
Heartbeat CPU 0 instructions: 53000002 cycles: 78014426 heartbeat IPC: 0.72574 cumulative IPC: 0.599207 (Simulation time: 2 hr 45 min 37 sec) 
Heartbeat CPU 0 instructions: 54000001 cycles: 79341772 heartbeat IPC: 0.753382 cumulative IPC: 0.602007 (Simulation time: 2 hr 48 min 39 sec) 
Heartbeat CPU 0 instructions: 55000000 cycles: 80720042 heartbeat IPC: 0.725547 cumulative IPC: 0.604293 (Simulation time: 2 hr 51 min 22 sec) 
Heartbeat CPU 0 instructions: 56000000 cycles: 82075942 heartbeat IPC: 0.737518 cumulative IPC: 0.606676 (Simulation time: 2 hr 54 min 12 sec) 
Heartbeat CPU 0 instructions: 57000000 cycles: 83442080 heartbeat IPC: 0.73199 cumulative IPC: 0.608894 (Simulation time: 2 hr 56 min 44 sec) 
Heartbeat CPU 0 instructions: 58000001 cycles: 84789137 heartbeat IPC: 0.74236 cumulative IPC: 0.611183 (Simulation time: 2 hr 59 min 27 sec) 
Heartbeat CPU 0 instructions: 59000003 cycles: 86104776 heartbeat IPC: 0.760088 cumulative IPC: 0.613636 (Simulation time: 3 hr 2 min 10 sec) 
Heartbeat CPU 0 instructions: 60000000 cycles: 87466885 heartbeat IPC: 0.734153 cumulative IPC: 0.615658 (Simulation time: 3 hr 4 min 59 sec) 
Heartbeat CPU 0 instructions: 61000001 cycles: 88806531 heartbeat IPC: 0.746467 cumulative IPC: 0.61778 (Simulation time: 3 hr 7 min 47 sec) 
Heartbeat CPU 0 instructions: 62000000 cycles: 90154491 heartbeat IPC: 0.741861 cumulative IPC: 0.619774 (Simulation time: 3 hr 10 min 34 sec) 
Heartbeat CPU 0 instructions: 63000000 cycles: 91487723 heartbeat IPC: 0.750057 cumulative IPC: 0.621812 (Simulation time: 3 hr 13 min 23 sec) 
Heartbeat CPU 0 instructions: 64000000 cycles: 92843128 heartbeat IPC: 0.737787 cumulative IPC: 0.623627 (Simulation time: 3 hr 16 min 22 sec) 
Heartbeat CPU 0 instructions: 65000000 cycles: 94206319 heartbeat IPC: 0.733573 cumulative IPC: 0.625331 (Simulation time: 3 hr 19 min 0 sec) 
Heartbeat CPU 0 instructions: 66000000 cycles: 95567748 heartbeat IPC: 0.734522 cumulative IPC: 0.626995 (Simulation time: 3 hr 21 min 42 sec) 
Heartbeat CPU 0 instructions: 67000003 cycles: 96923556 heartbeat IPC: 0.73757 cumulative IPC: 0.628649 (Simulation time: 3 hr 24 min 27 sec) 
Heartbeat CPU 0 instructions: 68000000 cycles: 98251242 heartbeat IPC: 0.753188 cumulative IPC: 0.630446 (Simulation time: 3 hr 27 min 5 sec) 
Heartbeat CPU 0 instructions: 69000000 cycles: 99584331 heartbeat IPC: 0.750137 cumulative IPC: 0.632156 (Simulation time: 3 hr 29 min 46 sec) 
Heartbeat CPU 0 instructions: 70000001 cycles: 100902681 heartbeat IPC: 0.758525 cumulative IPC: 0.633916 (Simulation time: 3 hr 32 min 37 sec) 
Heartbeat CPU 0 instructions: 71000002 cycles: 102252103 heartbeat IPC: 0.741059 cumulative IPC: 0.635422 (Simulation time: 3 hr 35 min 49 sec) 
Heartbeat CPU 0 instructions: 72000000 cycles: 103569178 heartbeat IPC: 0.759257 cumulative IPC: 0.637098 (Simulation time: 3 hr 38 min 28 sec) 
Heartbeat CPU 0 instructions: 73000000 cycles: 104898702 heartbeat IPC: 0.752149 cumulative IPC: 0.638649 (Simulation time: 3 hr 41 min 21 sec) 
Heartbeat CPU 0 instructions: 74000000 cycles: 106225503 heartbeat IPC: 0.753693 cumulative IPC: 0.640175 (Simulation time: 3 hr 44 min 2 sec) 
Heartbeat CPU 0 instructions: 75000002 cycles: 107540946 heartbeat IPC: 0.760202 cumulative IPC: 0.641734 (Simulation time: 3 hr 46 min 48 sec) 
Heartbeat CPU 0 instructions: 76000000 cycles: 108889692 heartbeat IPC: 0.741428 cumulative IPC: 0.643044 (Simulation time: 3 hr 49 min 28 sec) 
Heartbeat CPU 0 instructions: 77000000 cycles: 110210105 heartbeat IPC: 0.757339 cumulative IPC: 0.644496 (Simulation time: 3 hr 52 min 15 sec) 
Heartbeat CPU 0 instructions: 78000003 cycles: 111587757 heartbeat IPC: 0.725875 cumulative IPC: 0.64556 (Simulation time: 3 hr 54 min 44 sec) 
Heartbeat CPU 0 instructions: 79000000 cycles: 113097287 heartbeat IPC: 0.662456 cumulative IPC: 0.645799 (Simulation time: 3 hr 57 min 22 sec) 
Heartbeat CPU 0 instructions: 80000000 cycles: 114733155 heartbeat IPC: 0.611296 cumulative IPC: 0.645279 (Simulation time: 3 hr 59 min 54 sec) 
Heartbeat CPU 0 instructions: 81000002 cycles: 116338314 heartbeat IPC: 0.622993 cumulative IPC: 0.644954 (Simulation time: 4 hr 2 min 24 sec) 
Heartbeat CPU 0 instructions: 82000003 cycles: 117993829 heartbeat IPC: 0.604042 cumulative IPC: 0.644348 (Simulation time: 4 hr 4 min 57 sec) 
Heartbeat CPU 0 instructions: 83000003 cycles: 119668696 heartbeat IPC: 0.597062 cumulative IPC: 0.643649 (Simulation time: 4 hr 7 min 23 sec) 
Heartbeat CPU 0 instructions: 84000000 cycles: 121292603 heartbeat IPC: 0.615797 cumulative IPC: 0.643256 (Simulation time: 4 hr 9 min 47 sec) 
Heartbeat CPU 0 instructions: 85000001 cycles: 122936558 heartbeat IPC: 0.60829 cumulative IPC: 0.642764 (Simulation time: 4 hr 12 min 8 sec) 
Heartbeat CPU 0 instructions: 86000002 cycles: 124562009 heartbeat IPC: 0.615214 cumulative IPC: 0.642385 (Simulation time: 4 hr 14 min 31 sec) 
Heartbeat CPU 0 instructions: 87000000 cycles: 126200242 heartbeat IPC: 0.610413 cumulative IPC: 0.641948 (Simulation time: 4 hr 16 min 44 sec) 
Heartbeat CPU 0 instructions: 88000000 cycles: 127858637 heartbeat IPC: 0.602993 cumulative IPC: 0.641417 (Simulation time: 4 hr 18 min 48 sec) 
Heartbeat CPU 0 instructions: 89000002 cycles: 129479177 heartbeat IPC: 0.617079 cumulative IPC: 0.641097 (Simulation time: 4 hr 20 min 43 sec) 
Heartbeat CPU 0 instructions: 90000001 cycles: 131108405 heartbeat IPC: 0.613787 cumulative IPC: 0.640741 (Simulation time: 4 hr 22 min 41 sec) 
Heartbeat CPU 0 instructions: 91000003 cycles: 132730347 heartbeat IPC: 0.616546 cumulative IPC: 0.64043 (Simulation time: 4 hr 24 min 30 sec) 
Heartbeat CPU 0 instructions: 92000000 cycles: 134368142 heartbeat IPC: 0.610575 cumulative IPC: 0.640049 (Simulation time: 4 hr 26 min 14 sec) 
Heartbeat CPU 0 instructions: 93000001 cycles: 136024370 heartbeat IPC: 0.603782 cumulative IPC: 0.639586 (Simulation time: 4 hr 27 min 51 sec) 
Heartbeat CPU 0 instructions: 94000003 cycles: 137665736 heartbeat IPC: 0.60925 cumulative IPC: 0.639207 (Simulation time: 4 hr 29 min 27 sec) 
Heartbeat CPU 0 instructions: 95000002 cycles: 139358736 heartbeat IPC: 0.590667 cumulative IPC: 0.63859 (Simulation time: 4 hr 30 min 59 sec) 
Heartbeat CPU 0 instructions: 96000000 cycles: 141001324 heartbeat IPC: 0.608794 cumulative IPC: 0.638226 (Simulation time: 4 hr 32 min 29 sec) 
Heartbeat CPU 0 instructions: 97000003 cycles: 142962212 heartbeat IPC: 0.509975 cumulative IPC: 0.636387 (Simulation time: 4 hr 34 min 1 sec) 
Heartbeat CPU 0 instructions: 98000002 cycles: 148506184 heartbeat IPC: 0.180376 cumulative IPC: 0.618615 (Simulation time: 4 hr 36 min 56 sec) 
Heartbeat CPU 0 instructions: 99000000 cycles: 151623926 heartbeat IPC: 0.320744 cumulative IPC: 0.612227 (Simulation time: 4 hr 39 min 6 sec) 
Heartbeat CPU 0 instructions: 100000000 cycles: 153223169 heartbeat IPC: 0.625296 cumulative IPC: 0.612369 (Simulation time: 4 hr 40 min 6 sec) 
Heartbeat CPU 0 instructions: 101000002 cycles: 154468794 heartbeat IPC: 0.802811 cumulative IPC: 0.613969 (Simulation time: 4 hr 40 min 51 sec) 
Heartbeat CPU 0 instructions: 102000003 cycles: 155869606 heartbeat IPC: 0.713872 cumulative IPC: 0.614905 (Simulation time: 4 hr 41 min 34 sec) 
Heartbeat CPU 0 instructions: 103000002 cycles: 157305938 heartbeat IPC: 0.696217 cumulative IPC: 0.615678 (Simulation time: 4 hr 42 min 18 sec) 
Heartbeat CPU 0 instructions: 104000000 cycles: 158745646 heartbeat IPC: 0.694584 cumulative IPC: 0.616423 (Simulation time: 4 hr 43 min 6 sec) 
Heartbeat CPU 0 instructions: 105000001 cycles: 160207055 heartbeat IPC: 0.684272 cumulative IPC: 0.617067 (Simulation time: 4 hr 43 min 46 sec) 
Heartbeat CPU 0 instructions: 106000001 cycles: 161683730 heartbeat IPC: 0.677197 cumulative IPC: 0.617638 (Simulation time: 4 hr 44 min 21 sec) 
Heartbeat CPU 0 instructions: 107000001 cycles: 163140599 heartbeat IPC: 0.686404 cumulative IPC: 0.618277 (Simulation time: 4 hr 44 min 58 sec) 
Heartbeat CPU 0 instructions: 108000000 cycles: 164611315 heartbeat IPC: 0.67994 cumulative IPC: 0.618849 (Simulation time: 4 hr 45 min 33 sec) 
Heartbeat CPU 0 instructions: 109000001 cycles: 166064788 heartbeat IPC: 0.688008 cumulative IPC: 0.619478 (Simulation time: 4 hr 46 min 8 sec) 
Heartbeat CPU 0 instructions: 110000001 cycles: 167526519 heartbeat IPC: 0.68412 cumulative IPC: 0.620064 (Simulation time: 4 hr 46 min 42 sec) 
Finished CPU 0 instructions: 100000000 cycles: 161273613 cummulative IPC: 0.620064 (Simulation time: 4 hr 46 min 42 sec) 

ChampSim completed all CPUs

Region of Interest Statistics

CPU 0 cummulative IPC: 0.620064 instructions: 100000000 cycles: 161273613
LLC TOTAL     ACCESS:    4603959  HIT:     470749  MISS:    4133210
LLC LOAD      ACCESS:     461690  HIT:      53124  MISS:     408566
LLC RFO       ACCESS:     741529  HIT:     103727  MISS:     637802
LLC PREFETCH  ACCESS:    2300772  HIT:     135450  MISS:    2165322
LLC WRITEBACK ACCESS:    1099968  HIT:     178448  MISS:     921520
