
*** ChampSim Multicore Out-of-Order Simulator ***

Warmup Instructions: 10000000
Simulation Instructions: 100000000
Configuration: 2
Number of CPUs: 1
LLC sets: 2048
LLC ways: 16
Off-chip DRAM Channels: 1 Width: 64-bit Data Rate: 1600 MT/s

CPU 0 runs /datasets/cs240c-wi22-a00-public/data/Assignment2-gz/lbm_94B.trace.gz
CPU 0 L1D next line prefetcher
CPU 0 L2C IP-based stride prefetcher
config 2, num_core 1, llc_sets 2048
Heartbeat CPU 0 instructions: 1000000 cycles: 422068 heartbeat IPC: 2.36929 cumulative IPC: 2.36929 (Simulation time: 0 hr 2 min 39 sec) 
Heartbeat CPU 0 instructions: 2000000 cycles: 812399 heartbeat IPC: 2.56193 cumulative IPC: 2.46184 (Simulation time: 0 hr 5 min 1 sec) 
Heartbeat CPU 0 instructions: 3000000 cycles: 1211540 heartbeat IPC: 2.50538 cumulative IPC: 2.47619 (Simulation time: 0 hr 7 min 28 sec) 
Heartbeat CPU 0 instructions: 4000000 cycles: 1631537 heartbeat IPC: 2.38097 cumulative IPC: 2.45168 (Simulation time: 0 hr 9 min 51 sec) 
Heartbeat CPU 0 instructions: 5000001 cycles: 2021791 heartbeat IPC: 2.56244 cumulative IPC: 2.47306 (Simulation time: 0 hr 12 min 5 sec) 
Heartbeat CPU 0 instructions: 6000000 cycles: 2422471 heartbeat IPC: 2.49575 cumulative IPC: 2.47681 (Simulation time: 0 hr 14 min 19 sec) 
Heartbeat CPU 0 instructions: 7000001 cycles: 2840617 heartbeat IPC: 2.39151 cumulative IPC: 2.46425 (Simulation time: 0 hr 16 min 36 sec) 
Heartbeat CPU 0 instructions: 8000000 cycles: 3230856 heartbeat IPC: 2.56253 cumulative IPC: 2.47612 (Simulation time: 0 hr 18 min 55 sec) 
Heartbeat CPU 0 instructions: 9000003 cycles: 3631895 heartbeat IPC: 2.49353 cumulative IPC: 2.47805 (Simulation time: 0 hr 21 min 32 sec) 
Heartbeat CPU 0 instructions: 10000000 cycles: 4048472 heartbeat IPC: 2.40051 cumulative IPC: 2.47007 (Simulation time: 0 hr 24 min 23 sec) 

Warmup complete CPU 0 instructions: 10000004 cycles: 4048473 (Simulation time: 0 hr 24 min 23 sec) 

Heartbeat CPU 0 instructions: 11000001 cycles: 5452623 heartbeat IPC: 0.712175 cumulative IPC: 0.712173 (Simulation time: 0 hr 27 min 6 sec) 
Heartbeat CPU 0 instructions: 12000000 cycles: 7026401 heartbeat IPC: 0.635413 cumulative IPC: 0.671607 (Simulation time: 0 hr 30 min 8 sec) 
Heartbeat CPU 0 instructions: 13000000 cycles: 8483239 heartbeat IPC: 0.686418 cumulative IPC: 0.676472 (Simulation time: 0 hr 33 min 1 sec) 
Heartbeat CPU 0 instructions: 14000000 cycles: 9863340 heartbeat IPC: 0.724585 cumulative IPC: 0.687891 (Simulation time: 0 hr 35 min 49 sec) 
Heartbeat CPU 0 instructions: 15000003 cycles: 11442338 heartbeat IPC: 0.633315 cumulative IPC: 0.676236 (Simulation time: 0 hr 38 min 33 sec) 
Heartbeat CPU 0 instructions: 16000000 cycles: 12924999 heartbeat IPC: 0.674461 cumulative IPC: 0.67594 (Simulation time: 0 hr 41 min 10 sec) 
Heartbeat CPU 0 instructions: 17000001 cycles: 14264993 heartbeat IPC: 0.746273 cumulative IPC: 0.685165 (Simulation time: 0 hr 43 min 33 sec) 
Heartbeat CPU 0 instructions: 18000001 cycles: 15860288 heartbeat IPC: 0.626843 cumulative IPC: 0.677288 (Simulation time: 0 hr 46 min 5 sec) 
Heartbeat CPU 0 instructions: 19000000 cycles: 17410675 heartbeat IPC: 0.645 cumulative IPC: 0.673541 (Simulation time: 0 hr 48 min 34 sec) 
Heartbeat CPU 0 instructions: 20000000 cycles: 18700212 heartbeat IPC: 0.775472 cumulative IPC: 0.682513 (Simulation time: 0 hr 51 min 3 sec) 
Heartbeat CPU 0 instructions: 21000001 cycles: 20253926 heartbeat IPC: 0.64362 cumulative IPC: 0.678784 (Simulation time: 0 hr 54 min 18 sec) 
Heartbeat CPU 0 instructions: 22000000 cycles: 21822754 heartbeat IPC: 0.637418 cumulative IPC: 0.675133 (Simulation time: 0 hr 57 min 46 sec) 
Heartbeat CPU 0 instructions: 23000000 cycles: 23036656 heartbeat IPC: 0.82379 cumulative IPC: 0.684636 (Simulation time: 1 hr 0 min 47 sec) 
Heartbeat CPU 0 instructions: 24000000 cycles: 24571029 heartbeat IPC: 0.651732 cumulative IPC: 0.682176 (Simulation time: 1 hr 3 min 56 sec) 
Heartbeat CPU 0 instructions: 25000000 cycles: 26225652 heartbeat IPC: 0.604367 cumulative IPC: 0.676371 (Simulation time: 1 hr 7 min 11 sec) 
Heartbeat CPU 0 instructions: 26000000 cycles: 27380140 heartbeat IPC: 0.866185 cumulative IPC: 0.685763 (Simulation time: 1 hr 10 min 7 sec) 
Heartbeat CPU 0 instructions: 27000002 cycles: 28875226 heartbeat IPC: 0.668859 cumulative IPC: 0.684745 (Simulation time: 1 hr 13 min 22 sec) 
Heartbeat CPU 0 instructions: 28000000 cycles: 30607659 heartbeat IPC: 0.577222 cumulative IPC: 0.677731 (Simulation time: 1 hr 16 min 53 sec) 
Heartbeat CPU 0 instructions: 29000000 cycles: 31779679 heartbeat IPC: 0.853228 cumulative IPC: 0.685149 (Simulation time: 1 hr 19 min 44 sec) 
Heartbeat CPU 0 instructions: 30000000 cycles: 33235945 heartbeat IPC: 0.686688 cumulative IPC: 0.685225 (Simulation time: 1 hr 22 min 43 sec) 
Heartbeat CPU 0 instructions: 31000003 cycles: 34961357 heartbeat IPC: 0.579573 cumulative IPC: 0.679328 (Simulation time: 1 hr 25 min 40 sec) 
Heartbeat CPU 0 instructions: 32000000 cycles: 36210851 heartbeat IPC: 0.800322 cumulative IPC: 0.684029 (Simulation time: 1 hr 28 min 33 sec) 
Heartbeat CPU 0 instructions: 33000000 cycles: 37579207 heartbeat IPC: 0.730804 cumulative IPC: 0.685938 (Simulation time: 1 hr 31 min 23 sec) 
Heartbeat CPU 0 instructions: 34000003 cycles: 39219425 heartbeat IPC: 0.609677 cumulative IPC: 0.682381 (Simulation time: 1 hr 34 min 16 sec) 
Heartbeat CPU 0 instructions: 35000003 cycles: 40608979 heartbeat IPC: 0.719655 cumulative IPC: 0.683798 (Simulation time: 1 hr 36 min 51 sec) 
Heartbeat CPU 0 instructions: 36000000 cycles: 41944321 heartbeat IPC: 0.74887 cumulative IPC: 0.686091 (Simulation time: 1 hr 39 min 16 sec) 
Heartbeat CPU 0 instructions: 37000003 cycles: 43501649 heartbeat IPC: 0.642127 cumulative IPC: 0.684355 (Simulation time: 1 hr 41 min 34 sec) 
Heartbeat CPU 0 instructions: 38000001 cycles: 44980810 heartbeat IPC: 0.676058 cumulative IPC: 0.684056 (Simulation time: 1 hr 43 min 59 sec) 
Heartbeat CPU 0 instructions: 39000002 cycles: 46226224 heartbeat IPC: 0.802947 cumulative IPC: 0.687566 (Simulation time: 1 hr 46 min 12 sec) 
Heartbeat CPU 0 instructions: 40000000 cycles: 47728135 heartbeat IPC: 0.665817 cumulative IPC: 0.686818 (Simulation time: 1 hr 48 min 31 sec) 
Heartbeat CPU 0 instructions: 41000003 cycles: 49292195 heartbeat IPC: 0.639364 cumulative IPC: 0.685178 (Simulation time: 1 hr 51 min 4 sec) 
Heartbeat CPU 0 instructions: 42000000 cycles: 50580698 heartbeat IPC: 0.776092 cumulative IPC: 0.687695 (Simulation time: 1 hr 53 min 27 sec) 
Heartbeat CPU 0 instructions: 43000001 cycles: 51935537 heartbeat IPC: 0.738096 cumulative IPC: 0.689121 (Simulation time: 1 hr 55 min 53 sec) 
Heartbeat CPU 0 instructions: 44000000 cycles: 53489533 heartbeat IPC: 0.643502 cumulative IPC: 0.687687 (Simulation time: 1 hr 58 min 16 sec) 
Heartbeat CPU 0 instructions: 45000002 cycles: 54890533 heartbeat IPC: 0.713777 cumulative IPC: 0.688406 (Simulation time: 2 hr 0 min 33 sec) 
Heartbeat CPU 0 instructions: 46000003 cycles: 56138790 heartbeat IPC: 0.801118 cumulative IPC: 0.691107 (Simulation time: 2 hr 2 min 53 sec) 
Heartbeat CPU 0 instructions: 47000001 cycles: 57620473 heartbeat IPC: 0.674907 cumulative IPC: 0.690659 (Simulation time: 2 hr 5 min 30 sec) 
Heartbeat CPU 0 instructions: 48000000 cycles: 59085291 heartbeat IPC: 0.682678 cumulative IPC: 0.690447 (Simulation time: 2 hr 8 min 12 sec) 
Heartbeat CPU 0 instructions: 49000000 cycles: 60364597 heartbeat IPC: 0.781674 cumulative IPC: 0.692519 (Simulation time: 2 hr 10 min 51 sec) 
Heartbeat CPU 0 instructions: 50000003 cycles: 61786884 heartbeat IPC: 0.703095 cumulative IPC: 0.69278 (Simulation time: 2 hr 13 min 23 sec) 
Heartbeat CPU 0 instructions: 51000003 cycles: 63216589 heartbeat IPC: 0.699445 cumulative IPC: 0.692941 (Simulation time: 2 hr 16 min 1 sec) 
Heartbeat CPU 0 instructions: 52000000 cycles: 64604718 heartbeat IPC: 0.720392 cumulative IPC: 0.69357 (Simulation time: 2 hr 18 min 43 sec) 
Heartbeat CPU 0 instructions: 53000001 cycles: 65911015 heartbeat IPC: 0.765523 cumulative IPC: 0.695089 (Simulation time: 2 hr 21 min 20 sec) 
Heartbeat CPU 0 instructions: 54000000 cycles: 67358636 heartbeat IPC: 0.690788 cumulative IPC: 0.694991 (Simulation time: 2 hr 23 min 44 sec) 
Heartbeat CPU 0 instructions: 55000003 cycles: 68789790 heartbeat IPC: 0.698739 cumulative IPC: 0.695074 (Simulation time: 2 hr 26 min 12 sec) 
Heartbeat CPU 0 instructions: 56000000 cycles: 70100138 heartbeat IPC: 0.763154 cumulative IPC: 0.696424 (Simulation time: 2 hr 28 min 40 sec) 
Heartbeat CPU 0 instructions: 57000003 cycles: 71420726 heartbeat IPC: 0.757241 cumulative IPC: 0.697617 (Simulation time: 2 hr 30 min 55 sec) 
Heartbeat CPU 0 instructions: 58000003 cycles: 72878855 heartbeat IPC: 0.68581 cumulative IPC: 0.697366 (Simulation time: 2 hr 33 min 24 sec) 
Heartbeat CPU 0 instructions: 59000002 cycles: 74315975 heartbeat IPC: 0.695835 cumulative IPC: 0.697335 (Simulation time: 2 hr 35 min 44 sec) 
Heartbeat CPU 0 instructions: 60000000 cycles: 75553940 heartbeat IPC: 0.807776 cumulative IPC: 0.699247 (Simulation time: 2 hr 37 min 56 sec) 
Heartbeat CPU 0 instructions: 61000000 cycles: 76999347 heartbeat IPC: 0.691847 cumulative IPC: 0.699101 (Simulation time: 2 hr 40 min 19 sec) 
Heartbeat CPU 0 instructions: 62000000 cycles: 78453031 heartbeat IPC: 0.687907 cumulative IPC: 0.698882 (Simulation time: 2 hr 43 min 5 sec) 
Heartbeat CPU 0 instructions: 63000001 cycles: 79762447 heartbeat IPC: 0.7637 cumulative IPC: 0.700003 (Simulation time: 2 hr 46 min 9 sec) 
Heartbeat CPU 0 instructions: 64000000 cycles: 81109457 heartbeat IPC: 0.742384 cumulative IPC: 0.700744 (Simulation time: 2 hr 48 min 36 sec) 
Heartbeat CPU 0 instructions: 65000003 cycles: 82587826 heartbeat IPC: 0.676423 cumulative IPC: 0.700286 (Simulation time: 2 hr 51 min 17 sec) 
Heartbeat CPU 0 instructions: 66000002 cycles: 83968821 heartbeat IPC: 0.724115 cumulative IPC: 0.700698 (Simulation time: 2 hr 53 min 47 sec) 
Heartbeat CPU 0 instructions: 67000002 cycles: 85205848 heartbeat IPC: 0.80839 cumulative IPC: 0.702339 (Simulation time: 2 hr 56 min 7 sec) 
Heartbeat CPU 0 instructions: 68000000 cycles: 86654509 heartbeat IPC: 0.690291 cumulative IPC: 0.702128 (Simulation time: 2 hr 58 min 37 sec) 
Heartbeat CPU 0 instructions: 69000000 cycles: 88112162 heartbeat IPC: 0.686034 cumulative IPC: 0.701849 (Simulation time: 3 hr 1 min 11 sec) 
Heartbeat CPU 0 instructions: 70000001 cycles: 89457037 heartbeat IPC: 0.743564 cumulative IPC: 0.702506 (Simulation time: 3 hr 3 min 36 sec) 
Heartbeat CPU 0 instructions: 71000001 cycles: 90808767 heartbeat IPC: 0.739793 cumulative IPC: 0.703087 (Simulation time: 3 hr 6 min 13 sec) 
Heartbeat CPU 0 instructions: 72000000 cycles: 92277407 heartbeat IPC: 0.680901 cumulative IPC: 0.702717 (Simulation time: 3 hr 8 min 56 sec) 
Heartbeat CPU 0 instructions: 73000001 cycles: 93693070 heartbeat IPC: 0.706384 cumulative IPC: 0.702775 (Simulation time: 3 hr 11 min 19 sec) 
Heartbeat CPU 0 instructions: 74000001 cycles: 94943093 heartbeat IPC: 0.799985 cumulative IPC: 0.704112 (Simulation time: 3 hr 13 min 37 sec) 
Heartbeat CPU 0 instructions: 75000000 cycles: 96334478 heartbeat IPC: 0.718708 cumulative IPC: 0.704332 (Simulation time: 3 hr 16 min 14 sec) 
Heartbeat CPU 0 instructions: 76000000 cycles: 97811013 heartbeat IPC: 0.677261 cumulative IPC: 0.703906 (Simulation time: 3 hr 19 min 7 sec) 
Heartbeat CPU 0 instructions: 77000002 cycles: 99105812 heartbeat IPC: 0.772322 cumulative IPC: 0.704838 (Simulation time: 3 hr 21 min 24 sec) 
Heartbeat CPU 0 instructions: 78000003 cycles: 100450155 heartbeat IPC: 0.743859 cumulative IPC: 0.705382 (Simulation time: 3 hr 23 min 57 sec) 
Heartbeat CPU 0 instructions: 79000000 cycles: 101915593 heartbeat IPC: 0.682388 cumulative IPC: 0.705038 (Simulation time: 3 hr 26 min 16 sec) 
Heartbeat CPU 0 instructions: 80000000 cycles: 103342018 heartbeat IPC: 0.701053 cumulative IPC: 0.70498 (Simulation time: 3 hr 28 min 36 sec) 
Heartbeat CPU 0 instructions: 81000000 cycles: 104621898 heartbeat IPC: 0.781323 cumulative IPC: 0.705952 (Simulation time: 3 hr 31 min 0 sec) 
Heartbeat CPU 0 instructions: 82000000 cycles: 106037124 heartbeat IPC: 0.706601 cumulative IPC: 0.705961 (Simulation time: 3 hr 33 min 9 sec) 
Heartbeat CPU 0 instructions: 83000003 cycles: 107505863 heartbeat IPC: 0.680858 cumulative IPC: 0.705604 (Simulation time: 3 hr 35 min 33 sec) 
Heartbeat CPU 0 instructions: 84000000 cycles: 108833384 heartbeat IPC: 0.753281 cumulative IPC: 0.706209 (Simulation time: 3 hr 37 min 47 sec) 
Heartbeat CPU 0 instructions: 85000001 cycles: 110143554 heartbeat IPC: 0.76326 cumulative IPC: 0.706913 (Simulation time: 3 hr 40 min 15 sec) 
Heartbeat CPU 0 instructions: 86000003 cycles: 111656682 heartbeat IPC: 0.660884 cumulative IPC: 0.706266 (Simulation time: 3 hr 42 min 53 sec) 
Heartbeat CPU 0 instructions: 87000000 cycles: 113011623 heartbeat IPC: 0.738037 cumulative IPC: 0.706661 (Simulation time: 3 hr 45 min 38 sec) 
Heartbeat CPU 0 instructions: 88000000 cycles: 114325432 heartbeat IPC: 0.761146 cumulative IPC: 0.70731 (Simulation time: 3 hr 48 min 35 sec) 
Heartbeat CPU 0 instructions: 89000003 cycles: 115675879 heartbeat IPC: 0.740498 cumulative IPC: 0.707712 (Simulation time: 3 hr 51 min 32 sec) 
Heartbeat CPU 0 instructions: 90000003 cycles: 117151020 heartbeat IPC: 0.677901 cumulative IPC: 0.707323 (Simulation time: 3 hr 54 min 31 sec) 
Heartbeat CPU 0 instructions: 91000002 cycles: 118479123 heartbeat IPC: 0.752953 cumulative IPC: 0.707852 (Simulation time: 3 hr 57 min 15 sec) 
Heartbeat CPU 0 instructions: 92000000 cycles: 119772854 heartbeat IPC: 0.772957 cumulative IPC: 0.70858 (Simulation time: 4 hr 0 min 1 sec) 
Heartbeat CPU 0 instructions: 93000003 cycles: 121262042 heartbeat IPC: 0.671509 cumulative IPC: 0.708109 (Simulation time: 4 hr 2 min 26 sec) 
Heartbeat CPU 0 instructions: 94000001 cycles: 122622040 heartbeat IPC: 0.735294 cumulative IPC: 0.708421 (Simulation time: 4 hr 5 min 0 sec) 
Heartbeat CPU 0 instructions: 95000001 cycles: 123935307 heartbeat IPC: 0.76146 cumulative IPC: 0.709002 (Simulation time: 4 hr 7 min 33 sec) 
Heartbeat CPU 0 instructions: 96000000 cycles: 125287625 heartbeat IPC: 0.73947 cumulative IPC: 0.709342 (Simulation time: 4 hr 9 min 57 sec) 
Heartbeat CPU 0 instructions: 97000000 cycles: 126769840 heartbeat IPC: 0.674666 cumulative IPC: 0.708923 (Simulation time: 4 hr 12 min 12 sec) 
Heartbeat CPU 0 instructions: 98000002 cycles: 128141527 heartbeat IPC: 0.729031 cumulative IPC: 0.709145 (Simulation time: 4 hr 14 min 26 sec) 
Heartbeat CPU 0 instructions: 99000001 cycles: 129429665 heartbeat IPC: 0.776314 cumulative IPC: 0.709835 (Simulation time: 4 hr 16 min 32 sec) 
Heartbeat CPU 0 instructions: 100000000 cycles: 130876450 heartbeat IPC: 0.691187 cumulative IPC: 0.709623 (Simulation time: 4 hr 18 min 34 sec) 
Heartbeat CPU 0 instructions: 101000003 cycles: 132285138 heartbeat IPC: 0.709883 cumulative IPC: 0.709625 (Simulation time: 4 hr 20 min 25 sec) 
Heartbeat CPU 0 instructions: 102000002 cycles: 133620145 heartbeat IPC: 0.749059 cumulative IPC: 0.710032 (Simulation time: 4 hr 22 min 6 sec) 
Heartbeat CPU 0 instructions: 103000000 cycles: 134985820 heartbeat IPC: 0.732237 cumulative IPC: 0.710263 (Simulation time: 4 hr 23 min 45 sec) 
Heartbeat CPU 0 instructions: 104000000 cycles: 136423652 heartbeat IPC: 0.695492 cumulative IPC: 0.710103 (Simulation time: 4 hr 25 min 18 sec) 
Heartbeat CPU 0 instructions: 105000002 cycles: 137815012 heartbeat IPC: 0.718723 cumulative IPC: 0.710193 (Simulation time: 4 hr 26 min 46 sec) 
Heartbeat CPU 0 instructions: 106000001 cycles: 139117564 heartbeat IPC: 0.767723 cumulative IPC: 0.710747 (Simulation time: 4 hr 28 min 6 sec) 
Heartbeat CPU 0 instructions: 107000000 cycles: 140507595 heartbeat IPC: 0.719408 cumulative IPC: 0.710836 (Simulation time: 4 hr 29 min 24 sec) 
Heartbeat CPU 0 instructions: 108000000 cycles: 141953827 heartbeat IPC: 0.691452 cumulative IPC: 0.710632 (Simulation time: 4 hr 30 min 43 sec) 
Heartbeat CPU 0 instructions: 109000002 cycles: 143268901 heartbeat IPC: 0.760415 cumulative IPC: 0.711103 (Simulation time: 4 hr 31 min 57 sec) 
Heartbeat CPU 0 instructions: 110000000 cycles: 144624427 heartbeat IPC: 0.73772 cumulative IPC: 0.711359 (Simulation time: 4 hr 33 min 6 sec) 
Finished CPU 0 instructions: 100000000 cycles: 140575955 cummulative IPC: 0.711359 (Simulation time: 4 hr 33 min 6 sec) 

ChampSim completed all CPUs

Region of Interest Statistics

CPU 0 cummulative IPC: 0.711359 instructions: 100000000 cycles: 140575955
LLC TOTAL     ACCESS:    5487289  HIT:    1379511  MISS:    4107778
LLC LOAD      ACCESS:     389277  HIT:         32  MISS:     389245
LLC RFO       ACCESS:    2345828  HIT:     516674  MISS:    1829154
LLC PREFETCH  ACCESS:     406029  HIT:          1  MISS:     406028
LLC WRITEBACK ACCESS:    2346155  HIT:     862804  MISS:    1483351
