
*** ChampSim Multicore Out-of-Order Simulator ***

Warmup Instructions: 10000000
Simulation Instructions: 100000000
Configuration: 2
Number of CPUs: 1
LLC sets: 2048
LLC ways: 16
Off-chip DRAM Channels: 1 Width: 64-bit Data Rate: 1600 MT/s

CPU 0 runs /datasets/cs240c-wi22-a00-public/data/Assignment2-gz/GemsFDTD_716B.trace.gz
CPU 0 L1D next line prefetcher
CPU 0 L2C IP-based stride prefetcher
config 2, num_core 1, llc_sets 2048
Heartbeat CPU 0 instructions: 1000000 cycles: 415045 heartbeat IPC: 2.40938 cumulative IPC: 2.40938 (Simulation time: 0 hr 2 min 39 sec) 
Heartbeat CPU 0 instructions: 2000003 cycles: 829979 heartbeat IPC: 2.41003 cumulative IPC: 2.4097 (Simulation time: 0 hr 5 min 21 sec) 
Heartbeat CPU 0 instructions: 3000000 cycles: 1280165 heartbeat IPC: 2.2213 cumulative IPC: 2.34345 (Simulation time: 0 hr 7 min 47 sec) 
Heartbeat CPU 0 instructions: 4000000 cycles: 1737196 heartbeat IPC: 2.18804 cumulative IPC: 2.30256 (Simulation time: 0 hr 10 min 34 sec) 
Heartbeat CPU 0 instructions: 5000000 cycles: 2152178 heartbeat IPC: 2.40974 cumulative IPC: 2.32323 (Simulation time: 0 hr 13 min 19 sec) 
Heartbeat CPU 0 instructions: 6000000 cycles: 2567198 heartbeat IPC: 2.40952 cumulative IPC: 2.33718 (Simulation time: 0 hr 16 min 0 sec) 
Heartbeat CPU 0 instructions: 7000000 cycles: 2982193 heartbeat IPC: 2.40967 cumulative IPC: 2.34727 (Simulation time: 0 hr 18 min 44 sec) 
Heartbeat CPU 0 instructions: 8000000 cycles: 3395129 heartbeat IPC: 2.42168 cumulative IPC: 2.35632 (Simulation time: 0 hr 21 min 29 sec) 
Heartbeat CPU 0 instructions: 9000001 cycles: 3841077 heartbeat IPC: 2.24242 cumulative IPC: 2.34309 (Simulation time: 0 hr 24 min 45 sec) 
Heartbeat CPU 0 instructions: 10000002 cycles: 4356307 heartbeat IPC: 1.94088 cumulative IPC: 2.29552 (Simulation time: 0 hr 28 min 40 sec) 

Warmup complete CPU 0 instructions: 10000002 cycles: 4356307 (Simulation time: 0 hr 28 min 40 sec) 

Heartbeat CPU 0 instructions: 11000000 cycles: 8206629 heartbeat IPC: 0.259718 cumulative IPC: 0.259718 (Simulation time: 0 hr 33 min 12 sec) 
Heartbeat CPU 0 instructions: 12000000 cycles: 12046091 heartbeat IPC: 0.260453 cumulative IPC: 0.260085 (Simulation time: 0 hr 37 min 43 sec) 
Heartbeat CPU 0 instructions: 13000000 cycles: 15865981 heartbeat IPC: 0.261788 cumulative IPC: 0.26065 (Simulation time: 0 hr 42 min 18 sec) 
Heartbeat CPU 0 instructions: 14000002 cycles: 19916304 heartbeat IPC: 0.246894 cumulative IPC: 0.257069 (Simulation time: 0 hr 46 min 44 sec) 
Heartbeat CPU 0 instructions: 15000000 cycles: 24116601 heartbeat IPC: 0.238078 cumulative IPC: 0.253033 (Simulation time: 0 hr 51 min 23 sec) 
Heartbeat CPU 0 instructions: 16000000 cycles: 27785396 heartbeat IPC: 0.272569 cumulative IPC: 0.256092 (Simulation time: 0 hr 55 min 49 sec) 
Heartbeat CPU 0 instructions: 17000002 cycles: 31400625 heartbeat IPC: 0.276608 cumulative IPC: 0.258834 (Simulation time: 1 hr 0 min 37 sec) 
Heartbeat CPU 0 instructions: 18000003 cycles: 35008578 heartbeat IPC: 0.277166 cumulative IPC: 0.260992 (Simulation time: 1 hr 5 min 3 sec) 
Heartbeat CPU 0 instructions: 19000000 cycles: 38622366 heartbeat IPC: 0.276717 cumulative IPC: 0.262651 (Simulation time: 1 hr 9 min 11 sec) 
Heartbeat CPU 0 instructions: 20000000 cycles: 42173360 heartbeat IPC: 0.281611 cumulative IPC: 0.264431 (Simulation time: 1 hr 13 min 24 sec) 
Heartbeat CPU 0 instructions: 21000000 cycles: 45276718 heartbeat IPC: 0.322232 cumulative IPC: 0.268814 (Simulation time: 1 hr 17 min 48 sec) 
Heartbeat CPU 0 instructions: 22000003 cycles: 48358101 heartbeat IPC: 0.324531 cumulative IPC: 0.272716 (Simulation time: 1 hr 22 min 4 sec) 
Heartbeat CPU 0 instructions: 23000002 cycles: 51433445 heartbeat IPC: 0.325167 cumulative IPC: 0.276143 (Simulation time: 1 hr 26 min 26 sec) 
Heartbeat CPU 0 instructions: 24000000 cycles: 54525656 heartbeat IPC: 0.323393 cumulative IPC: 0.279055 (Simulation time: 1 hr 30 min 31 sec) 
Heartbeat CPU 0 instructions: 25000002 cycles: 57503581 heartbeat IPC: 0.335805 cumulative IPC: 0.282235 (Simulation time: 1 hr 34 min 18 sec) 
Heartbeat CPU 0 instructions: 26000002 cycles: 59409077 heartbeat IPC: 0.524798 cumulative IPC: 0.29063 (Simulation time: 1 hr 37 min 55 sec) 
Heartbeat CPU 0 instructions: 27000002 cycles: 61284923 heartbeat IPC: 0.533093 cumulative IPC: 0.29862 (Simulation time: 1 hr 41 min 15 sec) 
Heartbeat CPU 0 instructions: 28000000 cycles: 63043142 heartbeat IPC: 0.568756 cumulative IPC: 0.306713 (Simulation time: 1 hr 44 min 40 sec) 
Heartbeat CPU 0 instructions: 29000003 cycles: 64843217 heartbeat IPC: 0.555534 cumulative IPC: 0.314118 (Simulation time: 1 hr 48 min 4 sec) 
Heartbeat CPU 0 instructions: 30000002 cycles: 66811403 heartbeat IPC: 0.508082 cumulative IPC: 0.32023 (Simulation time: 1 hr 52 min 4 sec) 
Heartbeat CPU 0 instructions: 31000002 cycles: 68153738 heartbeat IPC: 0.744971 cumulative IPC: 0.329167 (Simulation time: 1 hr 55 min 15 sec) 
Heartbeat CPU 0 instructions: 32000000 cycles: 69491876 heartbeat IPC: 0.747306 cumulative IPC: 0.337757 (Simulation time: 1 hr 58 min 21 sec) 
Heartbeat CPU 0 instructions: 33000000 cycles: 70839043 heartbeat IPC: 0.742298 cumulative IPC: 0.345954 (Simulation time: 2 hr 1 min 19 sec) 
Heartbeat CPU 0 instructions: 34000001 cycles: 72183844 heartbeat IPC: 0.743605 cumulative IPC: 0.353839 (Simulation time: 2 hr 4 min 33 sec) 
Heartbeat CPU 0 instructions: 35000001 cycles: 73524482 heartbeat IPC: 0.745914 cumulative IPC: 0.361438 (Simulation time: 2 hr 7 min 58 sec) 
Heartbeat CPU 0 instructions: 36000000 cycles: 74946458 heartbeat IPC: 0.703246 cumulative IPC: 0.368323 (Simulation time: 2 hr 11 min 32 sec) 
Heartbeat CPU 0 instructions: 37000002 cycles: 76646194 heartbeat IPC: 0.588328 cumulative IPC: 0.373496 (Simulation time: 2 hr 15 min 26 sec) 
Heartbeat CPU 0 instructions: 38000002 cycles: 78005505 heartbeat IPC: 0.735667 cumulative IPC: 0.380181 (Simulation time: 2 hr 18 min 51 sec) 
Heartbeat CPU 0 instructions: 39000000 cycles: 79375285 heartbeat IPC: 0.730043 cumulative IPC: 0.386569 (Simulation time: 2 hr 22 min 29 sec) 
Heartbeat CPU 0 instructions: 40000000 cycles: 80743644 heartbeat IPC: 0.730802 cumulative IPC: 0.392735 (Simulation time: 2 hr 26 min 4 sec) 
Heartbeat CPU 0 instructions: 41000003 cycles: 82112875 heartbeat IPC: 0.730339 cumulative IPC: 0.39868 (Simulation time: 2 hr 29 min 30 sec) 
Heartbeat CPU 0 instructions: 42000000 cycles: 83484194 heartbeat IPC: 0.729223 cumulative IPC: 0.404409 (Simulation time: 2 hr 32 min 37 sec) 
Heartbeat CPU 0 instructions: 43000002 cycles: 86542138 heartbeat IPC: 0.327018 cumulative IPC: 0.401529 (Simulation time: 2 hr 37 min 4 sec) 
Heartbeat CPU 0 instructions: 44000000 cycles: 89881347 heartbeat IPC: 0.299472 cumulative IPC: 0.397544 (Simulation time: 2 hr 41 min 40 sec) 
Heartbeat CPU 0 instructions: 45000001 cycles: 93258397 heartbeat IPC: 0.296117 cumulative IPC: 0.393692 (Simulation time: 2 hr 46 min 17 sec) 
Heartbeat CPU 0 instructions: 46000002 cycles: 96734035 heartbeat IPC: 0.287717 cumulative IPC: 0.389704 (Simulation time: 2 hr 51 min 4 sec) 
Heartbeat CPU 0 instructions: 47000000 cycles: 100140570 heartbeat IPC: 0.293553 cumulative IPC: 0.386285 (Simulation time: 2 hr 55 min 37 sec) 
Heartbeat CPU 0 instructions: 48000000 cycles: 104044652 heartbeat IPC: 0.256142 cumulative IPC: 0.381188 (Simulation time: 3 hr 0 min 23 sec) 
Heartbeat CPU 0 instructions: 49000000 cycles: 107711054 heartbeat IPC: 0.272747 cumulative IPC: 0.377341 (Simulation time: 3 hr 4 min 48 sec) 
Heartbeat CPU 0 instructions: 50000001 cycles: 111305845 heartbeat IPC: 0.278181 cumulative IPC: 0.374008 (Simulation time: 3 hr 9 min 29 sec) 
Heartbeat CPU 0 instructions: 51000003 cycles: 114901264 heartbeat IPC: 0.278132 cumulative IPC: 0.37089 (Simulation time: 3 hr 14 min 12 sec) 
Heartbeat CPU 0 instructions: 52000000 cycles: 118495933 heartbeat IPC: 0.278189 cumulative IPC: 0.36797 (Simulation time: 3 hr 18 min 27 sec) 
Heartbeat CPU 0 instructions: 53000000 cycles: 122252234 heartbeat IPC: 0.266219 cumulative IPC: 0.364728 (Simulation time: 3 hr 23 min 22 sec) 
Heartbeat CPU 0 instructions: 54000001 cycles: 124765872 heartbeat IPC: 0.39783 cumulative IPC: 0.365419 (Simulation time: 3 hr 27 min 13 sec) 
Heartbeat CPU 0 instructions: 55000002 cycles: 126572796 heartbeat IPC: 0.553427 cumulative IPC: 0.368199 (Simulation time: 3 hr 30 min 24 sec) 
Heartbeat CPU 0 instructions: 56000000 cycles: 128430097 heartbeat IPC: 0.538415 cumulative IPC: 0.370747 (Simulation time: 3 hr 33 min 38 sec) 
Heartbeat CPU 0 instructions: 57000002 cycles: 130280956 heartbeat IPC: 0.540291 cumulative IPC: 0.373239 (Simulation time: 3 hr 36 min 59 sec) 
Heartbeat CPU 0 instructions: 58000001 cycles: 132057132 heartbeat IPC: 0.563007 cumulative IPC: 0.375879 (Simulation time: 3 hr 40 min 29 sec) 
Heartbeat CPU 0 instructions: 59000002 cycles: 134266721 heartbeat IPC: 0.452573 cumulative IPC: 0.377183 (Simulation time: 3 hr 44 min 12 sec) 
Heartbeat CPU 0 instructions: 60000000 cycles: 135799104 heartbeat IPC: 0.652577 cumulative IPC: 0.380394 (Simulation time: 3 hr 47 min 23 sec) 
Heartbeat CPU 0 instructions: 61000002 cycles: 137332251 heartbeat IPC: 0.652254 cumulative IPC: 0.383528 (Simulation time: 3 hr 50 min 39 sec) 
Heartbeat CPU 0 instructions: 62000000 cycles: 138877780 heartbeat IPC: 0.647026 cumulative IPC: 0.386555 (Simulation time: 3 hr 53 min 59 sec) 
Heartbeat CPU 0 instructions: 63000000 cycles: 140438531 heartbeat IPC: 0.640717 cumulative IPC: 0.38947 (Simulation time: 3 hr 57 min 7 sec) 
Heartbeat CPU 0 instructions: 64000000 cycles: 142362512 heartbeat IPC: 0.519756 cumulative IPC: 0.391287 (Simulation time: 4 hr 0 min 26 sec) 
Heartbeat CPU 0 instructions: 65000001 cycles: 143709117 heartbeat IPC: 0.742609 cumulative IPC: 0.394682 (Simulation time: 4 hr 3 min 8 sec) 
Heartbeat CPU 0 instructions: 66000003 cycles: 145052132 heartbeat IPC: 0.744595 cumulative IPC: 0.398022 (Simulation time: 4 hr 6 min 2 sec) 
Heartbeat CPU 0 instructions: 67000003 cycles: 146396322 heartbeat IPC: 0.743942 cumulative IPC: 0.401295 (Simulation time: 4 hr 8 min 47 sec) 
Heartbeat CPU 0 instructions: 68000000 cycles: 147734207 heartbeat IPC: 0.747446 cumulative IPC: 0.404525 (Simulation time: 4 hr 11 min 37 sec) 
Heartbeat CPU 0 instructions: 69000002 cycles: 149070537 heartbeat IPC: 0.74832 cumulative IPC: 0.4077 (Simulation time: 4 hr 14 min 23 sec) 
Heartbeat CPU 0 instructions: 70000000 cycles: 150949709 heartbeat IPC: 0.532148 cumulative IPC: 0.409295 (Simulation time: 4 hr 17 min 10 sec) 
Heartbeat CPU 0 instructions: 71000000 cycles: 152459612 heartbeat IPC: 0.662294 cumulative IPC: 0.411875 (Simulation time: 4 hr 19 min 41 sec) 
Heartbeat CPU 0 instructions: 72000000 cycles: 153824080 heartbeat IPC: 0.732886 cumulative IPC: 0.414805 (Simulation time: 4 hr 22 min 21 sec) 
Heartbeat CPU 0 instructions: 73000002 cycles: 155187260 heartbeat IPC: 0.73358 cumulative IPC: 0.417686 (Simulation time: 4 hr 24 min 33 sec) 
Heartbeat CPU 0 instructions: 74000000 cycles: 156562887 heartbeat IPC: 0.72694 cumulative IPC: 0.420481 (Simulation time: 4 hr 26 min 37 sec) 
Heartbeat CPU 0 instructions: 75000000 cycles: 157938360 heartbeat IPC: 0.727023 cumulative IPC: 0.423227 (Simulation time: 4 hr 28 min 31 sec) 
Heartbeat CPU 0 instructions: 76000000 cycles: 159307976 heartbeat IPC: 0.730132 cumulative IPC: 0.425939 (Simulation time: 4 hr 30 min 18 sec) 
Heartbeat CPU 0 instructions: 77000001 cycles: 163052000 heartbeat IPC: 0.267093 cumulative IPC: 0.422192 (Simulation time: 4 hr 32 min 31 sec) 
Heartbeat CPU 0 instructions: 78000000 cycles: 166507623 heartbeat IPC: 0.289383 cumulative IPC: 0.419361 (Simulation time: 4 hr 34 min 31 sec) 
Heartbeat CPU 0 instructions: 79000002 cycles: 169956449 heartbeat IPC: 0.289954 cumulative IPC: 0.416666 (Simulation time: 4 hr 36 min 27 sec) 
Heartbeat CPU 0 instructions: 80000000 cycles: 173425184 heartbeat IPC: 0.288289 cumulative IPC: 0.414032 (Simulation time: 4 hr 38 min 25 sec) 
Heartbeat CPU 0 instructions: 81000000 cycles: 176907193 heartbeat IPC: 0.287191 cumulative IPC: 0.411473 (Simulation time: 4 hr 40 min 13 sec) 
Heartbeat CPU 0 instructions: 82000002 cycles: 181020543 heartbeat IPC: 0.243111 cumulative IPC: 0.407553 (Simulation time: 4 hr 41 min 54 sec) 
Heartbeat CPU 0 instructions: 83000002 cycles: 184643999 heartbeat IPC: 0.27598 cumulative IPC: 0.404908 (Simulation time: 4 hr 43 min 17 sec) 
Heartbeat CPU 0 instructions: 84000000 cycles: 188270165 heartbeat IPC: 0.275773 cumulative IPC: 0.402362 (Simulation time: 4 hr 44 min 27 sec) 
Heartbeat CPU 0 instructions: 85000000 cycles: 191908863 heartbeat IPC: 0.274824 cumulative IPC: 0.399888 (Simulation time: 4 hr 45 min 33 sec) 
Heartbeat CPU 0 instructions: 86000000 cycles: 195542009 heartbeat IPC: 0.275244 cumulative IPC: 0.397519 (Simulation time: 4 hr 46 min 26 sec) 
Heartbeat CPU 0 instructions: 87000000 cycles: 199448820 heartbeat IPC: 0.255963 cumulative IPC: 0.394685 (Simulation time: 4 hr 47 min 22 sec) 
Heartbeat CPU 0 instructions: 88000000 cycles: 201266239 heartbeat IPC: 0.550231 cumulative IPC: 0.39612 (Simulation time: 4 hr 48 min 12 sec) 
Heartbeat CPU 0 instructions: 89000001 cycles: 202874554 heartbeat IPC: 0.621769 cumulative IPC: 0.397948 (Simulation time: 4 hr 48 min 47 sec) 
Heartbeat CPU 0 instructions: 90000001 cycles: 204482583 heartbeat IPC: 0.621879 cumulative IPC: 0.399748 (Simulation time: 4 hr 49 min 16 sec) 
Heartbeat CPU 0 instructions: 91000001 cycles: 206093500 heartbeat IPC: 0.620764 cumulative IPC: 0.401512 (Simulation time: 4 hr 49 min 46 sec) 
Heartbeat CPU 0 instructions: 92000000 cycles: 207703439 heartbeat IPC: 0.621141 cumulative IPC: 0.403251 (Simulation time: 4 hr 50 min 8 sec) 
Heartbeat CPU 0 instructions: 93000002 cycles: 209599650 heartbeat IPC: 0.527369 cumulative IPC: 0.404398 (Simulation time: 4 hr 50 min 30 sec) 
Heartbeat CPU 0 instructions: 94000001 cycles: 211011830 heartbeat IPC: 0.708124 cumulative IPC: 0.406474 (Simulation time: 4 hr 50 min 48 sec) 
Heartbeat CPU 0 instructions: 95000000 cycles: 212420513 heartbeat IPC: 0.709882 cumulative IPC: 0.408528 (Simulation time: 4 hr 51 min 4 sec) 
Heartbeat CPU 0 instructions: 96000000 cycles: 213832118 heartbeat IPC: 0.708413 cumulative IPC: 0.410549 (Simulation time: 4 hr 51 min 19 sec) 
Heartbeat CPU 0 instructions: 97000001 cycles: 215237777 heartbeat IPC: 0.711411 cumulative IPC: 0.412554 (Simulation time: 4 hr 51 min 33 sec) 
Heartbeat CPU 0 instructions: 98000000 cycles: 217024480 heartbeat IPC: 0.55969 cumulative IPC: 0.41379 (Simulation time: 4 hr 51 min 47 sec) 
Heartbeat CPU 0 instructions: 99000001 cycles: 218390640 heartbeat IPC: 0.731979 cumulative IPC: 0.415821 (Simulation time: 4 hr 52 min 0 sec) 
Heartbeat CPU 0 instructions: 100000000 cycles: 219758388 heartbeat IPC: 0.731128 cumulative IPC: 0.417823 (Simulation time: 4 hr 52 min 12 sec) 
Heartbeat CPU 0 instructions: 101000002 cycles: 221121940 heartbeat IPC: 0.73338 cumulative IPC: 0.419808 (Simulation time: 4 hr 52 min 24 sec) 
Heartbeat CPU 0 instructions: 102000003 cycles: 222493833 heartbeat IPC: 0.728921 cumulative IPC: 0.421752 (Simulation time: 4 hr 52 min 36 sec) 
Heartbeat CPU 0 instructions: 103000000 cycles: 223855459 heartbeat IPC: 0.734414 cumulative IPC: 0.423692 (Simulation time: 4 hr 52 min 48 sec) 
Heartbeat CPU 0 instructions: 104000000 cycles: 225768080 heartbeat IPC: 0.522843 cumulative IPC: 0.424548 (Simulation time: 4 hr 52 min 57 sec) 
Heartbeat CPU 0 instructions: 105000003 cycles: 227157460 heartbeat IPC: 0.719748 cumulative IPC: 0.426389 (Simulation time: 4 hr 53 min 6 sec) 
Heartbeat CPU 0 instructions: 106000001 cycles: 228555914 heartbeat IPC: 0.715074 cumulative IPC: 0.42819 (Simulation time: 4 hr 53 min 13 sec) 
Heartbeat CPU 0 instructions: 107000001 cycles: 229952761 heartbeat IPC: 0.715898 cumulative IPC: 0.429971 (Simulation time: 4 hr 53 min 22 sec) 
Heartbeat CPU 0 instructions: 108000000 cycles: 231332700 heartbeat IPC: 0.724669 cumulative IPC: 0.431763 (Simulation time: 4 hr 53 min 29 sec) 
Heartbeat CPU 0 instructions: 109000000 cycles: 232718771 heartbeat IPC: 0.721464 cumulative IPC: 0.433521 (Simulation time: 4 hr 53 min 37 sec) 
Heartbeat CPU 0 instructions: 110000002 cycles: 234510773 heartbeat IPC: 0.558036 cumulative IPC: 0.434491 (Simulation time: 4 hr 53 min 46 sec) 
Finished CPU 0 instructions: 100000000 cycles: 230154466 cummulative IPC: 0.434491 (Simulation time: 4 hr 53 min 46 sec) 

ChampSim completed all CPUs

Region of Interest Statistics

CPU 0 cummulative IPC: 0.434491 instructions: 100000000 cycles: 230154466
LLC TOTAL     ACCESS:   13003275  HIT:    9957879  MISS:    3045396
LLC LOAD      ACCESS:    5291186  HIT:    4318594  MISS:     972592
LLC RFO       ACCESS:          0  HIT:          0  MISS:          0
LLC PREFETCH  ACCESS:    6798901  HIT:    4779903  MISS:    2018998
LLC WRITEBACK ACCESS:     913188  HIT:     859382  MISS:      53806
