
*** ChampSim Multicore Out-of-Order Simulator ***

Warmup Instructions: 10000000
Simulation Instructions: 100000000
Configuration: 2
Number of CPUs: 1
LLC sets: 2048
LLC ways: 16
Off-chip DRAM Channels: 1 Width: 64-bit Data Rate: 1600 MT/s

CPU 0 runs /datasets/cs240c-wi22-a00-public/data/Assignment2-gz/sphinx3_883B.trace.gz
CPU 0 L1D next line prefetcher
CPU 0 L2C IP-based stride prefetcher
config 2, num_core 1, llc_sets 2048
Heartbeat CPU 0 instructions: 1000003 cycles: 414394 heartbeat IPC: 2.41317 cumulative IPC: 2.41317 (Simulation time: 0 hr 1 min 25 sec) 
Heartbeat CPU 0 instructions: 2000000 cycles: 824035 heartbeat IPC: 2.44115 cumulative IPC: 2.42708 (Simulation time: 0 hr 2 min 49 sec) 
Heartbeat CPU 0 instructions: 3000003 cycles: 1298610 heartbeat IPC: 2.10715 cumulative IPC: 2.31016 (Simulation time: 0 hr 4 min 6 sec) 
Heartbeat CPU 0 instructions: 4000000 cycles: 1637501 heartbeat IPC: 2.95079 cumulative IPC: 2.44275 (Simulation time: 0 hr 5 min 18 sec) 
Heartbeat CPU 0 instructions: 5000000 cycles: 1992161 heartbeat IPC: 2.8196 cumulative IPC: 2.50984 (Simulation time: 0 hr 6 min 33 sec) 
Heartbeat CPU 0 instructions: 6000003 cycles: 2406651 heartbeat IPC: 2.41261 cumulative IPC: 2.49309 (Simulation time: 0 hr 7 min 57 sec) 
Heartbeat CPU 0 instructions: 7000002 cycles: 2815431 heartbeat IPC: 2.4463 cumulative IPC: 2.4863 (Simulation time: 0 hr 9 min 18 sec) 
Heartbeat CPU 0 instructions: 8000000 cycles: 3291558 heartbeat IPC: 2.10028 cumulative IPC: 2.43046 (Simulation time: 0 hr 10 min 30 sec) 
Heartbeat CPU 0 instructions: 9000001 cycles: 3630560 heartbeat IPC: 2.94984 cumulative IPC: 2.47896 (Simulation time: 0 hr 11 min 37 sec) 
Heartbeat CPU 0 instructions: 10000000 cycles: 3984639 heartbeat IPC: 2.82423 cumulative IPC: 2.50964 (Simulation time: 0 hr 12 min 51 sec) 

Warmup complete CPU 0 instructions: 10000004 cycles: 3984640 (Simulation time: 0 hr 12 min 51 sec) 

Heartbeat CPU 0 instructions: 11000002 cycles: 5626682 heartbeat IPC: 0.608999 cumulative IPC: 0.608997 (Simulation time: 0 hr 14 min 15 sec) 
Heartbeat CPU 0 instructions: 12000000 cycles: 7274175 heartbeat IPC: 0.606982 cumulative IPC: 0.607987 (Simulation time: 0 hr 15 min 46 sec) 
Heartbeat CPU 0 instructions: 13000001 cycles: 8454393 heartbeat IPC: 0.847302 cumulative IPC: 0.671177 (Simulation time: 0 hr 17 min 4 sec) 
Heartbeat CPU 0 instructions: 14000002 cycles: 9369924 heartbeat IPC: 1.09226 cumulative IPC: 0.742765 (Simulation time: 0 hr 18 min 24 sec) 
Heartbeat CPU 0 instructions: 15000000 cycles: 10323136 heartbeat IPC: 1.04908 cumulative IPC: 0.78883 (Simulation time: 0 hr 19 min 49 sec) 
Heartbeat CPU 0 instructions: 16000000 cycles: 11858651 heartbeat IPC: 0.651247 cumulative IPC: 0.762 (Simulation time: 0 hr 21 min 19 sec) 
Heartbeat CPU 0 instructions: 17000000 cycles: 13412423 heartbeat IPC: 0.643595 cumulative IPC: 0.742486 (Simulation time: 0 hr 22 min 49 sec) 
Heartbeat CPU 0 instructions: 18000002 cycles: 14685438 heartbeat IPC: 0.785538 cumulative IPC: 0.747608 (Simulation time: 0 hr 24 min 11 sec) 
Heartbeat CPU 0 instructions: 19000003 cycles: 15599746 heartbeat IPC: 1.09372 cumulative IPC: 0.774853 (Simulation time: 0 hr 25 min 35 sec) 
Heartbeat CPU 0 instructions: 20000000 cycles: 16481062 heartbeat IPC: 1.13466 cumulative IPC: 0.800229 (Simulation time: 0 hr 26 min 58 sec) 
Heartbeat CPU 0 instructions: 21000000 cycles: 17922805 heartbeat IPC: 0.693605 cumulative IPC: 0.7892 (Simulation time: 0 hr 28 min 25 sec) 
Heartbeat CPU 0 instructions: 22000002 cycles: 19440429 heartbeat IPC: 0.658926 cumulative IPC: 0.776408 (Simulation time: 0 hr 29 min 51 sec) 
Heartbeat CPU 0 instructions: 23000001 cycles: 20909987 heartbeat IPC: 0.680476 cumulative IPC: 0.768079 (Simulation time: 0 hr 31 min 18 sec) 
Heartbeat CPU 0 instructions: 24000000 cycles: 21824575 heartbeat IPC: 1.09339 cumulative IPC: 0.784756 (Simulation time: 0 hr 32 min 38 sec) 
Heartbeat CPU 0 instructions: 25000003 cycles: 22720781 heartbeat IPC: 1.11582 cumulative IPC: 0.800592 (Simulation time: 0 hr 33 min 59 sec) 
Heartbeat CPU 0 instructions: 26000000 cycles: 23910188 heartbeat IPC: 0.840753 cumulative IPC: 0.802989 (Simulation time: 0 hr 35 min 30 sec) 
Heartbeat CPU 0 instructions: 27000000 cycles: 25382985 heartbeat IPC: 0.67898 cumulative IPC: 0.794454 (Simulation time: 0 hr 37 min 3 sec) 
Heartbeat CPU 0 instructions: 28000000 cycles: 26870486 heartbeat IPC: 0.672268 cumulative IPC: 0.786512 (Simulation time: 0 hr 38 min 27 sec) 
Heartbeat CPU 0 instructions: 29000000 cycles: 27881293 heartbeat IPC: 0.989309 cumulative IPC: 0.79509 (Simulation time: 0 hr 39 min 48 sec) 
Heartbeat CPU 0 instructions: 30000002 cycles: 28772060 heartbeat IPC: 1.12263 cumulative IPC: 0.806861 (Simulation time: 0 hr 41 min 11 sec) 
Heartbeat CPU 0 instructions: 31000003 cycles: 29852489 heartbeat IPC: 0.925559 cumulative IPC: 0.811819 (Simulation time: 0 hr 42 min 39 sec) 
Heartbeat CPU 0 instructions: 32000000 cycles: 31306084 heartbeat IPC: 0.687947 cumulative IPC: 0.805228 (Simulation time: 0 hr 44 min 9 sec) 
Heartbeat CPU 0 instructions: 33000000 cycles: 32741737 heartbeat IPC: 0.696547 cumulative IPC: 0.799802 (Simulation time: 0 hr 45 min 35 sec) 
Heartbeat CPU 0 instructions: 34000000 cycles: 33862885 heartbeat IPC: 0.891943 cumulative IPC: 0.80326 (Simulation time: 0 hr 46 min 55 sec) 
Heartbeat CPU 0 instructions: 35000003 cycles: 34761069 heartbeat IPC: 1.11336 cumulative IPC: 0.81231 (Simulation time: 0 hr 48 min 16 sec) 
Heartbeat CPU 0 instructions: 36000000 cycles: 35806077 heartbeat IPC: 0.956928 cumulative IPC: 0.817059 (Simulation time: 0 hr 49 min 40 sec) 
Heartbeat CPU 0 instructions: 37000001 cycles: 37267478 heartbeat IPC: 0.684276 cumulative IPC: 0.811229 (Simulation time: 0 hr 51 min 6 sec) 
Heartbeat CPU 0 instructions: 38000000 cycles: 38696817 heartbeat IPC: 0.699623 cumulative IPC: 0.806633 (Simulation time: 0 hr 52 min 31 sec) 
Heartbeat CPU 0 instructions: 39000003 cycles: 39797000 heartbeat IPC: 0.908942 cumulative IPC: 0.809776 (Simulation time: 0 hr 53 min 52 sec) 
Heartbeat CPU 0 instructions: 40000000 cycles: 40689937 heartbeat IPC: 1.1199 cumulative IPC: 0.817321 (Simulation time: 0 hr 55 min 9 sec) 
Heartbeat CPU 0 instructions: 41000003 cycles: 41722162 heartbeat IPC: 0.968784 cumulative IPC: 0.821464 (Simulation time: 0 hr 56 min 33 sec) 
Heartbeat CPU 0 instructions: 42000000 cycles: 43191684 heartbeat IPC: 0.680491 cumulative IPC: 0.81618 (Simulation time: 0 hr 57 min 59 sec) 
Heartbeat CPU 0 instructions: 43000003 cycles: 44648129 heartbeat IPC: 0.686605 cumulative IPC: 0.811539 (Simulation time: 0 hr 59 min 28 sec) 
Heartbeat CPU 0 instructions: 44000000 cycles: 45687937 heartbeat IPC: 0.961713 cumulative IPC: 0.815283 (Simulation time: 1 hr 0 min 57 sec) 
Heartbeat CPU 0 instructions: 45000002 cycles: 46576825 heartbeat IPC: 1.125 cumulative IPC: 0.821747 (Simulation time: 1 hr 2 min 17 sec) 
Heartbeat CPU 0 instructions: 46000001 cycles: 47634819 heartbeat IPC: 0.945184 cumulative IPC: 0.824739 (Simulation time: 1 hr 3 min 46 sec) 
Heartbeat CPU 0 instructions: 47000002 cycles: 49089043 heartbeat IPC: 0.687653 cumulative IPC: 0.820319 (Simulation time: 1 hr 5 min 23 sec) 
Heartbeat CPU 0 instructions: 48000000 cycles: 50554207 heartbeat IPC: 0.682516 cumulative IPC: 0.815983 (Simulation time: 1 hr 6 min 49 sec) 
Heartbeat CPU 0 instructions: 49000001 cycles: 51515527 heartbeat IPC: 1.04024 cumulative IPC: 0.820519 (Simulation time: 1 hr 8 min 11 sec) 
Heartbeat CPU 0 instructions: 50000000 cycles: 52396607 heartbeat IPC: 1.13497 cumulative IPC: 0.826242 (Simulation time: 1 hr 9 min 31 sec) 
Heartbeat CPU 0 instructions: 51000003 cycles: 53484575 heartbeat IPC: 0.919147 cumulative IPC: 0.828284 (Simulation time: 1 hr 10 min 51 sec) 
Heartbeat CPU 0 instructions: 52000000 cycles: 54963617 heartbeat IPC: 0.676111 cumulative IPC: 0.823869 (Simulation time: 1 hr 12 min 26 sec) 
Heartbeat CPU 0 instructions: 53000000 cycles: 56656422 heartbeat IPC: 0.590735 cumulative IPC: 0.816376 (Simulation time: 1 hr 14 min 3 sec) 
Heartbeat CPU 0 instructions: 54000003 cycles: 57968915 heartbeat IPC: 0.761911 cumulative IPC: 0.815052 (Simulation time: 1 hr 15 min 35 sec) 
Heartbeat CPU 0 instructions: 55000003 cycles: 58865558 heartbeat IPC: 1.11527 cumulative IPC: 0.819957 (Simulation time: 1 hr 16 min 58 sec) 
Heartbeat CPU 0 instructions: 56000000 cycles: 59754550 heartbeat IPC: 1.12487 cumulative IPC: 0.824817 (Simulation time: 1 hr 18 min 26 sec) 
Heartbeat CPU 0 instructions: 57000002 cycles: 60868903 heartbeat IPC: 0.897384 cumulative IPC: 0.826239 (Simulation time: 1 hr 19 min 56 sec) 
Heartbeat CPU 0 instructions: 58000001 cycles: 61882690 heartbeat IPC: 0.9864 cumulative IPC: 0.829043 (Simulation time: 1 hr 21 min 27 sec) 
Heartbeat CPU 0 instructions: 59000003 cycles: 62759511 heartbeat IPC: 1.14049 cumulative IPC: 0.83369 (Simulation time: 1 hr 22 min 52 sec) 
Heartbeat CPU 0 instructions: 60000000 cycles: 63652411 heartbeat IPC: 1.11994 cumulative IPC: 0.837973 (Simulation time: 1 hr 24 min 29 sec) 
Heartbeat CPU 0 instructions: 61000001 cycles: 64781358 heartbeat IPC: 0.885782 cumulative IPC: 0.838861 (Simulation time: 1 hr 25 min 59 sec) 
Heartbeat CPU 0 instructions: 62000001 cycles: 65649690 heartbeat IPC: 1.15163 cumulative IPC: 0.843265 (Simulation time: 1 hr 27 min 36 sec) 
Heartbeat CPU 0 instructions: 63000003 cycles: 66494908 heartbeat IPC: 1.18313 cumulative IPC: 0.847861 (Simulation time: 1 hr 29 min 6 sec) 
Heartbeat CPU 0 instructions: 64000000 cycles: 67676387 heartbeat IPC: 0.846394 cumulative IPC: 0.847834 (Simulation time: 1 hr 30 min 45 sec) 
Heartbeat CPU 0 instructions: 65000003 cycles: 68541385 heartbeat IPC: 1.15608 cumulative IPC: 0.851964 (Simulation time: 1 hr 32 min 14 sec) 
Heartbeat CPU 0 instructions: 66000002 cycles: 69396287 heartbeat IPC: 1.16972 cumulative IPC: 0.856117 (Simulation time: 1 hr 33 min 49 sec) 
Heartbeat CPU 0 instructions: 67000000 cycles: 70560998 heartbeat IPC: 0.85858 cumulative IPC: 0.85616 (Simulation time: 1 hr 35 min 31 sec) 
Heartbeat CPU 0 instructions: 68000000 cycles: 72064515 heartbeat IPC: 0.665107 cumulative IPC: 0.85194 (Simulation time: 1 hr 37 min 6 sec) 
Heartbeat CPU 0 instructions: 69000003 cycles: 72927347 heartbeat IPC: 1.15898 cumulative IPC: 0.855783 (Simulation time: 1 hr 38 min 37 sec) 
Heartbeat CPU 0 instructions: 70000000 cycles: 73783119 heartbeat IPC: 1.16853 cumulative IPC: 0.859618 (Simulation time: 1 hr 40 min 5 sec) 
Heartbeat CPU 0 instructions: 71000000 cycles: 74882310 heartbeat IPC: 0.90976 cumulative IPC: 0.860395 (Simulation time: 1 hr 41 min 38 sec) 
Heartbeat CPU 0 instructions: 72000000 cycles: 76275924 heartbeat IPC: 0.717559 cumulative IPC: 0.857641 (Simulation time: 1 hr 43 min 11 sec) 
Heartbeat CPU 0 instructions: 73000000 cycles: 77137141 heartbeat IPC: 1.16115 cumulative IPC: 0.861215 (Simulation time: 1 hr 44 min 41 sec) 
Heartbeat CPU 0 instructions: 74000000 cycles: 77996564 heartbeat IPC: 1.16357 cumulative IPC: 0.864725 (Simulation time: 1 hr 46 min 13 sec) 
Heartbeat CPU 0 instructions: 75000000 cycles: 79141722 heartbeat IPC: 0.873242 cumulative IPC: 0.864855 (Simulation time: 1 hr 47 min 45 sec) 
Heartbeat CPU 0 instructions: 76000000 cycles: 80393626 heartbeat IPC: 0.798783 cumulative IPC: 0.863773 (Simulation time: 1 hr 49 min 20 sec) 
Heartbeat CPU 0 instructions: 77000003 cycles: 81264769 heartbeat IPC: 1.14792 cumulative IPC: 0.866976 (Simulation time: 1 hr 50 min 52 sec) 
Heartbeat CPU 0 instructions: 78000000 cycles: 82105058 heartbeat IPC: 1.19006 cumulative IPC: 0.870451 (Simulation time: 1 hr 52 min 15 sec) 
Heartbeat CPU 0 instructions: 79000001 cycles: 83380501 heartbeat IPC: 0.784042 cumulative IPC: 0.869063 (Simulation time: 1 hr 53 min 39 sec) 
Heartbeat CPU 0 instructions: 80000000 cycles: 84505420 heartbeat IPC: 0.888952 cumulative IPC: 0.869341 (Simulation time: 1 hr 55 min 4 sec) 
Heartbeat CPU 0 instructions: 81000000 cycles: 85375828 heartbeat IPC: 1.14889 cumulative IPC: 0.87233 (Simulation time: 1 hr 56 min 23 sec) 
Heartbeat CPU 0 instructions: 82000000 cycles: 86202897 heartbeat IPC: 1.20909 cumulative IPC: 0.875718 (Simulation time: 1 hr 57 min 44 sec) 
Heartbeat CPU 0 instructions: 83000000 cycles: 87583106 heartbeat IPC: 0.724528 cumulative IPC: 0.873222 (Simulation time: 1 hr 59 min 7 sec) 
Heartbeat CPU 0 instructions: 84000000 cycles: 88494213 heartbeat IPC: 1.09757 cumulative IPC: 0.87564 (Simulation time: 2 hr 0 min 23 sec) 
Heartbeat CPU 0 instructions: 85000001 cycles: 89339235 heartbeat IPC: 1.1834 cumulative IPC: 0.878687 (Simulation time: 2 hr 1 min 40 sec) 
Heartbeat CPU 0 instructions: 86000001 cycles: 90353799 heartbeat IPC: 0.985645 cumulative IPC: 0.879944 (Simulation time: 2 hr 3 min 3 sec) 
Heartbeat CPU 0 instructions: 87000000 cycles: 91520955 heartbeat IPC: 0.856783 cumulative IPC: 0.879635 (Simulation time: 2 hr 4 min 26 sec) 
Heartbeat CPU 0 instructions: 88000000 cycles: 92381061 heartbeat IPC: 1.16265 cumulative IPC: 0.882389 (Simulation time: 2 hr 5 min 45 sec) 
Heartbeat CPU 0 instructions: 89000000 cycles: 93194716 heartbeat IPC: 1.22902 cumulative IPC: 0.88555 (Simulation time: 2 hr 7 min 3 sec) 
Heartbeat CPU 0 instructions: 90000000 cycles: 94462313 heartbeat IPC: 0.788894 cumulative IPC: 0.884196 (Simulation time: 2 hr 8 min 27 sec) 
Heartbeat CPU 0 instructions: 91000003 cycles: 95699743 heartbeat IPC: 0.808129 cumulative IPC: 0.88317 (Simulation time: 2 hr 9 min 52 sec) 
Heartbeat CPU 0 instructions: 92000000 cycles: 96656199 heartbeat IPC: 1.04552 cumulative IPC: 0.884845 (Simulation time: 2 hr 11 min 14 sec) 
Heartbeat CPU 0 instructions: 93000000 cycles: 97499724 heartbeat IPC: 1.1855 cumulative IPC: 0.887557 (Simulation time: 2 hr 12 min 32 sec) 
Heartbeat CPU 0 instructions: 94000002 cycles: 98323829 heartbeat IPC: 1.21344 cumulative IPC: 0.890404 (Simulation time: 2 hr 13 min 49 sec) 
Heartbeat CPU 0 instructions: 95000001 cycles: 99664200 heartbeat IPC: 0.746061 cumulative IPC: 0.888382 (Simulation time: 2 hr 15 min 15 sec) 
Heartbeat CPU 0 instructions: 96000000 cycles: 100522989 heartbeat IPC: 1.16443 cumulative IPC: 0.890838 (Simulation time: 2 hr 16 min 37 sec) 
Heartbeat CPU 0 instructions: 97000002 cycles: 101365615 heartbeat IPC: 1.18677 cumulative IPC: 0.893398 (Simulation time: 2 hr 17 min 54 sec) 
Heartbeat CPU 0 instructions: 98000003 cycles: 102514070 heartbeat IPC: 0.870736 cumulative IPC: 0.893134 (Simulation time: 2 hr 19 min 13 sec) 
Heartbeat CPU 0 instructions: 99000000 cycles: 103565748 heartbeat IPC: 0.950859 cumulative IPC: 0.893744 (Simulation time: 2 hr 20 min 39 sec) 
Heartbeat CPU 0 instructions: 100000000 cycles: 104418376 heartbeat IPC: 1.17284 cumulative IPC: 0.896113 (Simulation time: 2 hr 21 min 53 sec) 
Heartbeat CPU 0 instructions: 101000000 cycles: 105246600 heartbeat IPC: 1.2074 cumulative IPC: 0.898659 (Simulation time: 2 hr 23 min 10 sec) 
Heartbeat CPU 0 instructions: 102000003 cycles: 106669247 heartbeat IPC: 0.702917 cumulative IPC: 0.895947 (Simulation time: 2 hr 24 min 33 sec) 
Heartbeat CPU 0 instructions: 103000001 cycles: 107596032 heartbeat IPC: 1.079 cumulative IPC: 0.897585 (Simulation time: 2 hr 25 min 44 sec) 
Heartbeat CPU 0 instructions: 104000000 cycles: 108429449 heartbeat IPC: 1.19988 cumulative IPC: 0.899997 (Simulation time: 2 hr 26 min 56 sec) 
Heartbeat CPU 0 instructions: 105000002 cycles: 109470012 heartbeat IPC: 0.96102 cumulative IPC: 0.900599 (Simulation time: 2 hr 28 min 6 sec) 
Heartbeat CPU 0 instructions: 106000003 cycles: 110886215 heartbeat IPC: 0.706114 cumulative IPC: 0.898022 (Simulation time: 2 hr 29 min 18 sec) 
Heartbeat CPU 0 instructions: 107000001 cycles: 111752058 heartbeat IPC: 1.15494 cumulative IPC: 0.900086 (Simulation time: 2 hr 30 min 22 sec) 
Heartbeat CPU 0 instructions: 108000000 cycles: 112592845 heartbeat IPC: 1.18936 cumulative IPC: 0.902326 (Simulation time: 2 hr 31 min 30 sec) 
Heartbeat CPU 0 instructions: 109000001 cycles: 113702092 heartbeat IPC: 0.901513 cumulative IPC: 0.902318 (Simulation time: 2 hr 32 min 41 sec) 
Heartbeat CPU 0 instructions: 110000000 cycles: 115042262 heartbeat IPC: 0.746173 cumulative IPC: 0.900433 (Simulation time: 2 hr 33 min 45 sec) 
Finished CPU 0 instructions: 100000000 cycles: 111057623 cummulative IPC: 0.900433 (Simulation time: 2 hr 33 min 45 sec) 

ChampSim completed all CPUs

Region of Interest Statistics

CPU 0 cummulative IPC: 0.900433 instructions: 100000000 cycles: 111057623
LLC TOTAL     ACCESS:    1795796  HIT:     679246  MISS:    1116550
LLC LOAD      ACCESS:     314458  HIT:     264766  MISS:      49692
LLC RFO       ACCESS:      99586  HIT:      86753  MISS:      12833
LLC PREFETCH  ACCESS:    1240331  HIT:     198096  MISS:    1042235
LLC WRITEBACK ACCESS:     141421  HIT:     129631  MISS:      11790
