
*** ChampSim Multicore Out-of-Order Simulator ***

Warmup Instructions: 10000000
Simulation Instructions: 100000000
Configuration: 2
Number of CPUs: 1
LLC sets: 2048
LLC ways: 16
Off-chip DRAM Channels: 1 Width: 64-bit Data Rate: 1600 MT/s

CPU 0 runs /datasets/cs240c-wi22-a00-public/data/Assignment2-gz/bzip2_183B.trace.gz
CPU 0 L1D next line prefetcher
CPU 0 L2C IP-based stride prefetcher
config 2, num_core 1, llc_sets 2048
Heartbeat CPU 0 instructions: 1000000 cycles: 447951 heartbeat IPC: 2.23239 cumulative IPC: 2.23239 (Simulation time: 0 hr 1 min 48 sec) 
Heartbeat CPU 0 instructions: 2000001 cycles: 951222 heartbeat IPC: 1.987 cumulative IPC: 2.10256 (Simulation time: 0 hr 3 min 52 sec) 
Heartbeat CPU 0 instructions: 3000001 cycles: 1457879 heartbeat IPC: 1.97372 cumulative IPC: 2.05778 (Simulation time: 0 hr 5 min 57 sec) 
Heartbeat CPU 0 instructions: 4000000 cycles: 1928517 heartbeat IPC: 2.12477 cumulative IPC: 2.07413 (Simulation time: 0 hr 7 min 57 sec) 
Heartbeat CPU 0 instructions: 5000000 cycles: 2425808 heartbeat IPC: 2.0109 cumulative IPC: 2.06117 (Simulation time: 0 hr 10 min 14 sec) 
Heartbeat CPU 0 instructions: 6000001 cycles: 2887392 heartbeat IPC: 2.16646 cumulative IPC: 2.078 (Simulation time: 0 hr 12 min 14 sec) 
Heartbeat CPU 0 instructions: 7000002 cycles: 3343270 heartbeat IPC: 2.19357 cumulative IPC: 2.09376 (Simulation time: 0 hr 14 min 22 sec) 
Heartbeat CPU 0 instructions: 8000000 cycles: 3812814 heartbeat IPC: 2.12972 cumulative IPC: 2.09819 (Simulation time: 0 hr 16 min 25 sec) 
Heartbeat CPU 0 instructions: 9000003 cycles: 4278076 heartbeat IPC: 2.14933 cumulative IPC: 2.10375 (Simulation time: 0 hr 18 min 16 sec) 
Heartbeat CPU 0 instructions: 10000000 cycles: 4746535 heartbeat IPC: 2.13465 cumulative IPC: 2.1068 (Simulation time: 0 hr 20 min 17 sec) 

Warmup complete CPU 0 instructions: 10000001 cycles: 4746536 (Simulation time: 0 hr 20 min 17 sec) 

Heartbeat CPU 0 instructions: 11000000 cycles: 6253642 heartbeat IPC: 0.663523 cumulative IPC: 0.663523 (Simulation time: 0 hr 21 min 56 sec) 
Heartbeat CPU 0 instructions: 12000000 cycles: 7700875 heartbeat IPC: 0.690974 cumulative IPC: 0.67697 (Simulation time: 0 hr 23 min 42 sec) 
Heartbeat CPU 0 instructions: 13000000 cycles: 8908894 heartbeat IPC: 0.827802 cumulative IPC: 0.720745 (Simulation time: 0 hr 25 min 35 sec) 
Heartbeat CPU 0 instructions: 14000003 cycles: 9947189 heartbeat IPC: 0.96312 cumulative IPC: 0.769135 (Simulation time: 0 hr 27 min 30 sec) 
Heartbeat CPU 0 instructions: 15000000 cycles: 11321381 heartbeat IPC: 0.727698 cumulative IPC: 0.760474 (Simulation time: 0 hr 29 min 20 sec) 
Heartbeat CPU 0 instructions: 16000000 cycles: 12300139 heartbeat IPC: 1.0217 cumulative IPC: 0.794323 (Simulation time: 0 hr 30 min 56 sec) 
Heartbeat CPU 0 instructions: 17000003 cycles: 13201810 heartbeat IPC: 1.10906 cumulative IPC: 0.827886 (Simulation time: 0 hr 32 min 20 sec) 
Heartbeat CPU 0 instructions: 18000001 cycles: 14124015 heartbeat IPC: 1.08436 cumulative IPC: 0.853108 (Simulation time: 0 hr 33 min 37 sec) 
Heartbeat CPU 0 instructions: 19000002 cycles: 15072850 heartbeat IPC: 1.05393 cumulative IPC: 0.87156 (Simulation time: 0 hr 35 min 4 sec) 
Heartbeat CPU 0 instructions: 20000000 cycles: 16270950 heartbeat IPC: 0.834653 cumulative IPC: 0.867723 (Simulation time: 0 hr 36 min 43 sec) 
Heartbeat CPU 0 instructions: 21000000 cycles: 17768827 heartbeat IPC: 0.667612 cumulative IPC: 0.844705 (Simulation time: 0 hr 38 min 30 sec) 
Heartbeat CPU 0 instructions: 22000000 cycles: 19183425 heartbeat IPC: 0.706915 cumulative IPC: 0.831204 (Simulation time: 0 hr 40 min 15 sec) 
Heartbeat CPU 0 instructions: 23000000 cycles: 20321326 heartbeat IPC: 0.878811 cumulative IPC: 0.834682 (Simulation time: 0 hr 41 min 54 sec) 
Heartbeat CPU 0 instructions: 24000000 cycles: 21578796 heartbeat IPC: 0.795248 cumulative IPC: 0.831736 (Simulation time: 0 hr 43 min 28 sec) 
Heartbeat CPU 0 instructions: 25000001 cycles: 22922990 heartbeat IPC: 0.743941 cumulative IPC: 0.825243 (Simulation time: 0 hr 44 min 56 sec) 
Heartbeat CPU 0 instructions: 26000002 cycles: 23903951 heartbeat IPC: 1.01941 cumulative IPC: 0.835186 (Simulation time: 0 hr 46 min 19 sec) 
Heartbeat CPU 0 instructions: 27000000 cycles: 24908013 heartbeat IPC: 0.995952 cumulative IPC: 0.843192 (Simulation time: 0 hr 47 min 37 sec) 
Heartbeat CPU 0 instructions: 28000000 cycles: 26208923 heartbeat IPC: 0.768693 cumulative IPC: 0.838676 (Simulation time: 0 hr 48 min 56 sec) 
Heartbeat CPU 0 instructions: 29000003 cycles: 27281219 heartbeat IPC: 0.932581 cumulative IPC: 0.843145 (Simulation time: 0 hr 50 min 12 sec) 
Heartbeat CPU 0 instructions: 30000000 cycles: 28602769 heartbeat IPC: 0.756685 cumulative IPC: 0.838355 (Simulation time: 0 hr 51 min 30 sec) 
Heartbeat CPU 0 instructions: 31000000 cycles: 29897620 heartbeat IPC: 0.77229 cumulative IPC: 0.834954 (Simulation time: 0 hr 52 min 46 sec) 
Heartbeat CPU 0 instructions: 32000000 cycles: 31519738 heartbeat IPC: 0.616478 cumulative IPC: 0.821717 (Simulation time: 0 hr 54 min 2 sec) 
Heartbeat CPU 0 instructions: 33000000 cycles: 32583969 heartbeat IPC: 0.939646 cumulative IPC: 0.826226 (Simulation time: 0 hr 55 min 20 sec) 
Heartbeat CPU 0 instructions: 34000001 cycles: 33591447 heartbeat IPC: 0.992579 cumulative IPC: 0.832036 (Simulation time: 0 hr 56 min 36 sec) 
Heartbeat CPU 0 instructions: 35000003 cycles: 34607547 heartbeat IPC: 0.984157 cumulative IPC: 0.837212 (Simulation time: 0 hr 57 min 53 sec) 
Heartbeat CPU 0 instructions: 36000000 cycles: 35617683 heartbeat IPC: 0.989963 cumulative IPC: 0.84221 (Simulation time: 0 hr 59 min 7 sec) 
Heartbeat CPU 0 instructions: 37000003 cycles: 36866671 heartbeat IPC: 0.800651 cumulative IPC: 0.840594 (Simulation time: 1 hr 0 min 25 sec) 
Heartbeat CPU 0 instructions: 38000001 cycles: 38390926 heartbeat IPC: 0.656057 cumulative IPC: 0.832234 (Simulation time: 1 hr 1 min 41 sec) 
Heartbeat CPU 0 instructions: 39000002 cycles: 39511339 heartbeat IPC: 0.892529 cumulative IPC: 0.834177 (Simulation time: 1 hr 2 min 55 sec) 
Heartbeat CPU 0 instructions: 40000000 cycles: 40548163 heartbeat IPC: 0.964482 cumulative IPC: 0.837951 (Simulation time: 1 hr 4 min 16 sec) 
Heartbeat CPU 0 instructions: 41000002 cycles: 42021443 heartbeat IPC: 0.678759 cumulative IPC: 0.831659 (Simulation time: 1 hr 5 min 32 sec) 
Heartbeat CPU 0 instructions: 42000000 cycles: 43306634 heartbeat IPC: 0.778093 cumulative IPC: 0.829873 (Simulation time: 1 hr 6 min 57 sec) 
Heartbeat CPU 0 instructions: 43000001 cycles: 44450708 heartbeat IPC: 0.87407 cumulative IPC: 0.831147 (Simulation time: 1 hr 8 min 21 sec) 
Heartbeat CPU 0 instructions: 44000000 cycles: 45607381 heartbeat IPC: 0.864548 cumulative IPC: 0.832092 (Simulation time: 1 hr 9 min 49 sec) 
Heartbeat CPU 0 instructions: 45000000 cycles: 46674629 heartbeat IPC: 0.936989 cumulative IPC: 0.834762 (Simulation time: 1 hr 11 min 21 sec) 
Heartbeat CPU 0 instructions: 46000000 cycles: 47792073 heartbeat IPC: 0.894899 cumulative IPC: 0.836324 (Simulation time: 1 hr 12 min 43 sec) 
Heartbeat CPU 0 instructions: 47000003 cycles: 48795147 heartbeat IPC: 0.996938 cumulative IPC: 0.839981 (Simulation time: 1 hr 14 min 3 sec) 
Heartbeat CPU 0 instructions: 48000000 cycles: 50380436 heartbeat IPC: 0.630798 cumulative IPC: 0.832714 (Simulation time: 1 hr 15 min 23 sec) 
Heartbeat CPU 0 instructions: 49000003 cycles: 51987903 heartbeat IPC: 0.622099 cumulative IPC: 0.825548 (Simulation time: 1 hr 16 min 37 sec) 
Heartbeat CPU 0 instructions: 50000000 cycles: 53124431 heartbeat IPC: 0.87987 cumulative IPC: 0.826824 (Simulation time: 1 hr 18 min 2 sec) 
Heartbeat CPU 0 instructions: 51000000 cycles: 54156767 heartbeat IPC: 0.968677 cumulative IPC: 0.829788 (Simulation time: 1 hr 19 min 26 sec) 
Heartbeat CPU 0 instructions: 52000000 cycles: 55177971 heartbeat IPC: 0.979236 cumulative IPC: 0.832814 (Simulation time: 1 hr 20 min 51 sec) 
Heartbeat CPU 0 instructions: 53000001 cycles: 56156164 heartbeat IPC: 1.02229 cumulative IPC: 0.836419 (Simulation time: 1 hr 22 min 16 sec) 
Heartbeat CPU 0 instructions: 54000001 cycles: 57168924 heartbeat IPC: 0.987401 cumulative IPC: 0.839336 (Simulation time: 1 hr 23 min 44 sec) 
Heartbeat CPU 0 instructions: 55000001 cycles: 58405317 heartbeat IPC: 0.808804 cumulative IPC: 0.838633 (Simulation time: 1 hr 25 min 12 sec) 
Heartbeat CPU 0 instructions: 56000000 cycles: 59595973 heartbeat IPC: 0.839872 cumulative IPC: 0.838659 (Simulation time: 1 hr 26 min 39 sec) 
Heartbeat CPU 0 instructions: 57000003 cycles: 60982774 heartbeat IPC: 0.721086 cumulative IPC: 0.83576 (Simulation time: 1 hr 28 min 10 sec) 
Heartbeat CPU 0 instructions: 58000001 cycles: 62565671 heartbeat IPC: 0.631752 cumulative IPC: 0.830175 (Simulation time: 1 hr 29 min 35 sec) 
Heartbeat CPU 0 instructions: 59000003 cycles: 63872629 heartbeat IPC: 0.765137 cumulative IPC: 0.828737 (Simulation time: 1 hr 31 min 5 sec) 
Heartbeat CPU 0 instructions: 60000000 cycles: 65448015 heartbeat IPC: 0.634763 cumulative IPC: 0.823703 (Simulation time: 1 hr 32 min 34 sec) 
Heartbeat CPU 0 instructions: 61000003 cycles: 67174747 heartbeat IPC: 0.57913 cumulative IPC: 0.816938 (Simulation time: 1 hr 33 min 59 sec) 
Heartbeat CPU 0 instructions: 62000002 cycles: 68720881 heartbeat IPC: 0.646774 cumulative IPC: 0.812826 (Simulation time: 1 hr 35 min 19 sec) 
Heartbeat CPU 0 instructions: 63000003 cycles: 70098879 heartbeat IPC: 0.725691 cumulative IPC: 0.810989 (Simulation time: 1 hr 36 min 47 sec) 
Heartbeat CPU 0 instructions: 64000000 cycles: 71669683 heartbeat IPC: 0.636615 cumulative IPC: 0.806896 (Simulation time: 1 hr 38 min 8 sec) 
Heartbeat CPU 0 instructions: 65000003 cycles: 72933157 heartbeat IPC: 0.791471 cumulative IPC: 0.80661 (Simulation time: 1 hr 39 min 31 sec) 
Heartbeat CPU 0 instructions: 66000000 cycles: 74261528 heartbeat IPC: 0.7528 cumulative IPC: 0.805582 (Simulation time: 1 hr 41 min 6 sec) 
Heartbeat CPU 0 instructions: 67000000 cycles: 75200561 heartbeat IPC: 1.06493 cumulative IPC: 0.809038 (Simulation time: 1 hr 42 min 40 sec) 
Heartbeat CPU 0 instructions: 68000000 cycles: 76610584 heartbeat IPC: 0.709208 cumulative IPC: 0.807079 (Simulation time: 1 hr 44 min 18 sec) 
Heartbeat CPU 0 instructions: 69000000 cycles: 78189137 heartbeat IPC: 0.633492 cumulative IPC: 0.803348 (Simulation time: 1 hr 45 min 51 sec) 
Heartbeat CPU 0 instructions: 70000002 cycles: 79654133 heartbeat IPC: 0.682597 cumulative IPC: 0.800987 (Simulation time: 1 hr 47 min 41 sec) 
Heartbeat CPU 0 instructions: 71000000 cycles: 81225163 heartbeat IPC: 0.636524 cumulative IPC: 0.797608 (Simulation time: 1 hr 49 min 23 sec) 
Heartbeat CPU 0 instructions: 72000000 cycles: 82593846 heartbeat IPC: 0.730629 cumulative IPC: 0.796431 (Simulation time: 1 hr 51 min 5 sec) 
Heartbeat CPU 0 instructions: 73000001 cycles: 83885557 heartbeat IPC: 0.774168 cumulative IPC: 0.796067 (Simulation time: 1 hr 52 min 49 sec) 
Heartbeat CPU 0 instructions: 74000000 cycles: 85042391 heartbeat IPC: 0.864427 cumulative IPC: 0.797052 (Simulation time: 1 hr 54 min 50 sec) 
Heartbeat CPU 0 instructions: 75000001 cycles: 86456127 heartbeat IPC: 0.707346 cumulative IPC: 0.7955 (Simulation time: 1 hr 56 min 37 sec) 
Heartbeat CPU 0 instructions: 76000000 cycles: 87595235 heartbeat IPC: 0.877879 cumulative IPC: 0.796633 (Simulation time: 1 hr 58 min 29 sec) 
Heartbeat CPU 0 instructions: 77000003 cycles: 88776685 heartbeat IPC: 0.84642 cumulative IPC: 0.797333 (Simulation time: 2 hr 0 min 16 sec) 
Heartbeat CPU 0 instructions: 78000000 cycles: 90112056 heartbeat IPC: 0.748853 cumulative IPC: 0.796575 (Simulation time: 2 hr 2 min 5 sec) 
Heartbeat CPU 0 instructions: 79000000 cycles: 91458300 heartbeat IPC: 0.742807 cumulative IPC: 0.79574 (Simulation time: 2 hr 4 min 3 sec) 
Heartbeat CPU 0 instructions: 80000000 cycles: 92846097 heartbeat IPC: 0.720566 cumulative IPC: 0.794556 (Simulation time: 2 hr 5 min 58 sec) 
Heartbeat CPU 0 instructions: 81000000 cycles: 94540848 heartbeat IPC: 0.590057 cumulative IPC: 0.790696 (Simulation time: 2 hr 7 min 49 sec) 
Heartbeat CPU 0 instructions: 82000002 cycles: 96091268 heartbeat IPC: 0.644988 cumulative IPC: 0.788223 (Simulation time: 2 hr 9 min 31 sec) 
Heartbeat CPU 0 instructions: 83000000 cycles: 97243158 heartbeat IPC: 0.868137 cumulative IPC: 0.789218 (Simulation time: 2 hr 11 min 16 sec) 
Heartbeat CPU 0 instructions: 84000000 cycles: 98195686 heartbeat IPC: 1.04984 cumulative IPC: 0.791875 (Simulation time: 2 hr 12 min 45 sec) 
Heartbeat CPU 0 instructions: 85000002 cycles: 99239967 heartbeat IPC: 0.957599 cumulative IPC: 0.793706 (Simulation time: 2 hr 14 min 25 sec) 
Heartbeat CPU 0 instructions: 86000002 cycles: 100216743 heartbeat IPC: 1.02378 cumulative IPC: 0.79606 (Simulation time: 2 hr 15 min 56 sec) 
Heartbeat CPU 0 instructions: 87000001 cycles: 101230490 heartbeat IPC: 0.986438 cumulative IPC: 0.79806 (Simulation time: 2 hr 17 min 38 sec) 
Heartbeat CPU 0 instructions: 88000000 cycles: 102526348 heartbeat IPC: 0.771689 cumulative IPC: 0.797711 (Simulation time: 2 hr 19 min 26 sec) 
Heartbeat CPU 0 instructions: 89000000 cycles: 104045381 heartbeat IPC: 0.658314 cumulative IPC: 0.795578 (Simulation time: 2 hr 21 min 18 sec) 
Heartbeat CPU 0 instructions: 90000002 cycles: 105543296 heartbeat IPC: 0.667596 cumulative IPC: 0.793676 (Simulation time: 2 hr 22 min 56 sec) 
Heartbeat CPU 0 instructions: 91000000 cycles: 107244570 heartbeat IPC: 0.587794 cumulative IPC: 0.790259 (Simulation time: 2 hr 24 min 36 sec) 
Heartbeat CPU 0 instructions: 92000000 cycles: 108742187 heartbeat IPC: 0.667727 cumulative IPC: 0.788495 (Simulation time: 2 hr 26 min 18 sec) 
Heartbeat CPU 0 instructions: 93000001 cycles: 110001531 heartbeat IPC: 0.794065 cumulative IPC: 0.788561 (Simulation time: 2 hr 28 min 3 sec) 
Heartbeat CPU 0 instructions: 94000000 cycles: 111752774 heartbeat IPC: 0.571022 cumulative IPC: 0.785001 (Simulation time: 2 hr 29 min 28 sec) 
Heartbeat CPU 0 instructions: 95000002 cycles: 113362454 heartbeat IPC: 0.621243 cumulative IPC: 0.782574 (Simulation time: 2 hr 30 min 49 sec) 
Heartbeat CPU 0 instructions: 96000000 cycles: 114968351 heartbeat IPC: 0.622704 cumulative IPC: 0.780245 (Simulation time: 2 hr 32 min 6 sec) 
Heartbeat CPU 0 instructions: 97000000 cycles: 116372121 heartbeat IPC: 0.712367 cumulative IPC: 0.779391 (Simulation time: 2 hr 33 min 25 sec) 
Heartbeat CPU 0 instructions: 98000000 cycles: 117650808 heartbeat IPC: 0.782052 cumulative IPC: 0.779421 (Simulation time: 2 hr 34 min 45 sec) 
Heartbeat CPU 0 instructions: 99000003 cycles: 118771921 heartbeat IPC: 0.891973 cumulative IPC: 0.780528 (Simulation time: 2 hr 36 min 8 sec) 
Heartbeat CPU 0 instructions: 100000000 cycles: 120264093 heartbeat IPC: 0.670162 cumulative IPC: 0.779102 (Simulation time: 2 hr 37 min 32 sec) 
Heartbeat CPU 0 instructions: 101000000 cycles: 121773617 heartbeat IPC: 0.662461 cumulative IPC: 0.777598 (Simulation time: 2 hr 38 min 40 sec) 
Heartbeat CPU 0 instructions: 102000001 cycles: 123473955 heartbeat IPC: 0.588119 cumulative IPC: 0.774884 (Simulation time: 2 hr 39 min 36 sec) 
Heartbeat CPU 0 instructions: 103000002 cycles: 124791676 heartbeat IPC: 0.758887 cumulative IPC: 0.774709 (Simulation time: 2 hr 40 min 33 sec) 
Heartbeat CPU 0 instructions: 104000000 cycles: 126511259 heartbeat IPC: 0.581535 cumulative IPC: 0.771981 (Simulation time: 2 hr 41 min 24 sec) 
Heartbeat CPU 0 instructions: 105000002 cycles: 127485938 heartbeat IPC: 1.02598 cumulative IPC: 0.773998 (Simulation time: 2 hr 42 min 2 sec) 
Heartbeat CPU 0 instructions: 106000000 cycles: 129030689 heartbeat IPC: 0.647352 cumulative IPC: 0.772424 (Simulation time: 2 hr 42 min 45 sec) 
Heartbeat CPU 0 instructions: 107000002 cycles: 130601040 heartbeat IPC: 0.636802 cumulative IPC: 0.770731 (Simulation time: 2 hr 43 min 25 sec) 
Heartbeat CPU 0 instructions: 108000000 cycles: 131937001 heartbeat IPC: 0.748523 cumulative IPC: 0.770498 (Simulation time: 2 hr 44 min 11 sec) 
Heartbeat CPU 0 instructions: 109000002 cycles: 133653303 heartbeat IPC: 0.582649 cumulative IPC: 0.767997 (Simulation time: 2 hr 44 min 51 sec) 
Heartbeat CPU 0 instructions: 110000000 cycles: 134884619 heartbeat IPC: 0.812138 cumulative IPC: 0.768415 (Simulation time: 2 hr 45 min 26 sec) 
Finished CPU 0 instructions: 100000003 cycles: 130138084 cummulative IPC: 0.768415 (Simulation time: 2 hr 45 min 26 sec) 

ChampSim completed all CPUs

Region of Interest Statistics

CPU 0 cummulative IPC: 0.768415 instructions: 100000003 cycles: 130138084
LLC TOTAL     ACCESS:    1570756  HIT:    1399200  MISS:     171556
LLC LOAD      ACCESS:     429729  HIT:     403310  MISS:      26419
LLC RFO       ACCESS:     294155  HIT:     239517  MISS:      54638
LLC PREFETCH  ACCESS:     520904  HIT:     453632  MISS:      67272
LLC WRITEBACK ACCESS:     325968  HIT:     302741  MISS:      23227
