
*** ChampSim Multicore Out-of-Order Simulator ***

Warmup Instructions: 10000000
Simulation Instructions: 100000000
Configuration: 2
Number of CPUs: 1
LLC sets: 2048
LLC ways: 16
Off-chip DRAM Channels: 1 Width: 64-bit Data Rate: 1600 MT/s

CPU 0 runs /datasets/cs240c-wi22-a00-public/data/Assignment2-gz/sphinx3_2520B.trace.gz
CPU 0 L1D next line prefetcher
CPU 0 L2C IP-based stride prefetcher
config 2, num_core 1, llc_sets 2048
Heartbeat CPU 0 instructions: 1000003 cycles: 338965 heartbeat IPC: 2.95017 cumulative IPC: 2.95017 (Simulation time: 0 hr 1 min 11 sec) 
Heartbeat CPU 0 instructions: 2000000 cycles: 737248 heartbeat IPC: 2.51077 cumulative IPC: 2.71279 (Simulation time: 0 hr 2 min 36 sec) 
Heartbeat CPU 0 instructions: 3000003 cycles: 1185133 heartbeat IPC: 2.23272 cumulative IPC: 2.53136 (Simulation time: 0 hr 3 min 48 sec) 
Heartbeat CPU 0 instructions: 4000000 cycles: 1524173 heartbeat IPC: 2.9495 cumulative IPC: 2.62437 (Simulation time: 0 hr 5 min 0 sec) 
Heartbeat CPU 0 instructions: 5000001 cycles: 1902516 heartbeat IPC: 2.64311 cumulative IPC: 2.6281 (Simulation time: 0 hr 6 min 24 sec) 
Heartbeat CPU 0 instructions: 6000001 cycles: 2368114 heartbeat IPC: 2.14778 cumulative IPC: 2.53366 (Simulation time: 0 hr 7 min 42 sec) 
Heartbeat CPU 0 instructions: 7000001 cycles: 2707053 heartbeat IPC: 2.95038 cumulative IPC: 2.58584 (Simulation time: 0 hr 8 min 58 sec) 
Heartbeat CPU 0 instructions: 8000000 cycles: 3056067 heartbeat IPC: 2.86521 cumulative IPC: 2.61774 (Simulation time: 0 hr 10 min 17 sec) 
Heartbeat CPU 0 instructions: 9000000 cycles: 3509700 heartbeat IPC: 2.20443 cumulative IPC: 2.56432 (Simulation time: 0 hr 11 min 32 sec) 
Heartbeat CPU 0 instructions: 10000000 cycles: 3859843 heartbeat IPC: 2.85598 cumulative IPC: 2.59078 (Simulation time: 0 hr 12 min 42 sec) 

Warmup complete CPU 0 instructions: 10000004 cycles: 3859844 (Simulation time: 0 hr 12 min 42 sec) 

Heartbeat CPU 0 instructions: 11000001 cycles: 4524533 heartbeat IPC: 1.50446 cumulative IPC: 1.50446 (Simulation time: 0 hr 14 min 0 sec) 
Heartbeat CPU 0 instructions: 12000000 cycles: 5507513 heartbeat IPC: 1.01731 cumulative IPC: 1.21383 (Simulation time: 0 hr 15 min 22 sec) 
Heartbeat CPU 0 instructions: 13000002 cycles: 6325393 heartbeat IPC: 1.22268 cumulative IPC: 1.21677 (Simulation time: 0 hr 16 min 40 sec) 
Heartbeat CPU 0 instructions: 14000002 cycles: 6953882 heartbeat IPC: 1.59112 cumulative IPC: 1.29281 (Simulation time: 0 hr 17 min 59 sec) 
Heartbeat CPU 0 instructions: 15000003 cycles: 7901890 heartbeat IPC: 1.05484 cumulative IPC: 1.237 (Simulation time: 0 hr 19 min 21 sec) 
Heartbeat CPU 0 instructions: 16000000 cycles: 8708400 heartbeat IPC: 1.23991 cumulative IPC: 1.23748 (Simulation time: 0 hr 20 min 42 sec) 
Heartbeat CPU 0 instructions: 17000000 cycles: 9320715 heartbeat IPC: 1.63315 cumulative IPC: 1.28185 (Simulation time: 0 hr 22 min 6 sec) 
Heartbeat CPU 0 instructions: 18000002 cycles: 10236754 heartbeat IPC: 1.09166 cumulative IPC: 1.25453 (Simulation time: 0 hr 23 min 28 sec) 
Heartbeat CPU 0 instructions: 19000001 cycles: 11039731 heartbeat IPC: 1.24536 cumulative IPC: 1.2535 (Simulation time: 0 hr 24 min 45 sec) 
Heartbeat CPU 0 instructions: 20000000 cycles: 11668165 heartbeat IPC: 1.59126 cumulative IPC: 1.28068 (Simulation time: 0 hr 25 min 59 sec) 
Heartbeat CPU 0 instructions: 21000001 cycles: 12848694 heartbeat IPC: 0.847079 cumulative IPC: 1.22374 (Simulation time: 0 hr 27 min 22 sec) 
Heartbeat CPU 0 instructions: 22000002 cycles: 13815354 heartbeat IPC: 1.03449 cumulative IPC: 1.20536 (Simulation time: 0 hr 28 min 42 sec) 
Heartbeat CPU 0 instructions: 23000001 cycles: 14643972 heartbeat IPC: 1.20683 cumulative IPC: 1.20547 (Simulation time: 0 hr 30 min 1 sec) 
Heartbeat CPU 0 instructions: 24000000 cycles: 15304270 heartbeat IPC: 1.51447 cumulative IPC: 1.2233 (Simulation time: 0 hr 31 min 20 sec) 
Heartbeat CPU 0 instructions: 25000003 cycles: 16137991 heartbeat IPC: 1.19945 cumulative IPC: 1.22168 (Simulation time: 0 hr 32 min 34 sec) 
Heartbeat CPU 0 instructions: 26000000 cycles: 16950943 heartbeat IPC: 1.23008 cumulative IPC: 1.2222 (Simulation time: 0 hr 33 min 53 sec) 
Heartbeat CPU 0 instructions: 27000000 cycles: 17603126 heartbeat IPC: 1.53331 cumulative IPC: 1.23697 (Simulation time: 0 hr 35 min 11 sec) 
Heartbeat CPU 0 instructions: 28000000 cycles: 18444482 heartbeat IPC: 1.18856 cumulative IPC: 1.23418 (Simulation time: 0 hr 36 min 29 sec) 
Heartbeat CPU 0 instructions: 29000003 cycles: 19259848 heartbeat IPC: 1.22645 cumulative IPC: 1.23377 (Simulation time: 0 hr 37 min 49 sec) 
Heartbeat CPU 0 instructions: 30000003 cycles: 19908178 heartbeat IPC: 1.54242 cumulative IPC: 1.24624 (Simulation time: 0 hr 39 min 8 sec) 
Heartbeat CPU 0 instructions: 31000001 cycles: 20733491 heartbeat IPC: 1.21166 cumulative IPC: 1.24454 (Simulation time: 0 hr 40 min 29 sec) 
Heartbeat CPU 0 instructions: 32000000 cycles: 21526103 heartbeat IPC: 1.26165 cumulative IPC: 1.24531 (Simulation time: 0 hr 41 min 48 sec) 
Heartbeat CPU 0 instructions: 33000000 cycles: 22188129 heartbeat IPC: 1.51051 cumulative IPC: 1.25489 (Simulation time: 0 hr 43 min 7 sec) 
Heartbeat CPU 0 instructions: 34000000 cycles: 23017787 heartbeat IPC: 1.20532 cumulative IPC: 1.25274 (Simulation time: 0 hr 44 min 30 sec) 
Heartbeat CPU 0 instructions: 35000003 cycles: 23810979 heartbeat IPC: 1.26073 cumulative IPC: 1.25306 (Simulation time: 0 hr 45 min 51 sec) 
Heartbeat CPU 0 instructions: 36000000 cycles: 24470546 heartbeat IPC: 1.51614 cumulative IPC: 1.26148 (Simulation time: 0 hr 47 min 11 sec) 
Heartbeat CPU 0 instructions: 37000000 cycles: 25312890 heartbeat IPC: 1.18716 cumulative IPC: 1.25856 (Simulation time: 0 hr 48 min 26 sec) 
Heartbeat CPU 0 instructions: 38000000 cycles: 26107750 heartbeat IPC: 1.25808 cumulative IPC: 1.25855 (Simulation time: 0 hr 49 min 42 sec) 
Heartbeat CPU 0 instructions: 39000000 cycles: 26793417 heartbeat IPC: 1.45843 cumulative IPC: 1.26452 (Simulation time: 0 hr 50 min 56 sec) 
Heartbeat CPU 0 instructions: 40000000 cycles: 27644646 heartbeat IPC: 1.17477 cumulative IPC: 1.26131 (Simulation time: 0 hr 52 min 17 sec) 
Heartbeat CPU 0 instructions: 41000001 cycles: 28416355 heartbeat IPC: 1.29583 cumulative IPC: 1.26239 (Simulation time: 0 hr 53 min 38 sec) 
Heartbeat CPU 0 instructions: 42000002 cycles: 29109537 heartbeat IPC: 1.44262 cumulative IPC: 1.26734 (Simulation time: 0 hr 54 min 55 sec) 
Heartbeat CPU 0 instructions: 43000001 cycles: 29922711 heartbeat IPC: 1.22975 cumulative IPC: 1.26617 (Simulation time: 0 hr 56 min 11 sec) 
Heartbeat CPU 0 instructions: 44000000 cycles: 30694419 heartbeat IPC: 1.29583 cumulative IPC: 1.26702 (Simulation time: 0 hr 57 min 29 sec) 
Heartbeat CPU 0 instructions: 45000001 cycles: 31398493 heartbeat IPC: 1.42031 cumulative IPC: 1.27094 (Simulation time: 0 hr 58 min 47 sec) 
Heartbeat CPU 0 instructions: 46000001 cycles: 32244349 heartbeat IPC: 1.18223 cumulative IPC: 1.2683 (Simulation time: 1 hr 0 min 4 sec) 
Heartbeat CPU 0 instructions: 47000001 cycles: 33015553 heartbeat IPC: 1.29667 cumulative IPC: 1.26905 (Simulation time: 1 hr 1 min 23 sec) 
Heartbeat CPU 0 instructions: 48000000 cycles: 33734252 heartbeat IPC: 1.3914 cumulative IPC: 1.27199 (Simulation time: 1 hr 2 min 45 sec) 
Heartbeat CPU 0 instructions: 49000002 cycles: 34544028 heartbeat IPC: 1.23491 cumulative IPC: 1.27101 (Simulation time: 1 hr 4 min 5 sec) 
Heartbeat CPU 0 instructions: 50000002 cycles: 35300421 heartbeat IPC: 1.32206 cumulative IPC: 1.27224 (Simulation time: 1 hr 5 min 18 sec) 
Heartbeat CPU 0 instructions: 51000001 cycles: 36020728 heartbeat IPC: 1.3883 cumulative IPC: 1.27484 (Simulation time: 1 hr 6 min 38 sec) 
Heartbeat CPU 0 instructions: 52000000 cycles: 36814309 heartbeat IPC: 1.26011 cumulative IPC: 1.27449 (Simulation time: 1 hr 7 min 57 sec) 
Heartbeat CPU 0 instructions: 53000003 cycles: 37563263 heartbeat IPC: 1.3352 cumulative IPC: 1.27583 (Simulation time: 1 hr 9 min 17 sec) 
Heartbeat CPU 0 instructions: 54000001 cycles: 38265297 heartbeat IPC: 1.42443 cumulative IPC: 1.27887 (Simulation time: 1 hr 10 min 37 sec) 
Heartbeat CPU 0 instructions: 55000000 cycles: 39041086 heartbeat IPC: 1.28901 cumulative IPC: 1.27909 (Simulation time: 1 hr 11 min 55 sec) 
Heartbeat CPU 0 instructions: 56000000 cycles: 39781040 heartbeat IPC: 1.35144 cumulative IPC: 1.28058 (Simulation time: 1 hr 13 min 16 sec) 
Heartbeat CPU 0 instructions: 57000000 cycles: 40604386 heartbeat IPC: 1.21456 cumulative IPC: 1.2791 (Simulation time: 1 hr 14 min 37 sec) 
Heartbeat CPU 0 instructions: 58000002 cycles: 41733705 heartbeat IPC: 0.885491 cumulative IPC: 1.26736 (Simulation time: 1 hr 16 min 2 sec) 
Heartbeat CPU 0 instructions: 59000001 cycles: 42555732 heartbeat IPC: 1.2165 cumulative IPC: 1.26628 (Simulation time: 1 hr 17 min 23 sec) 
Heartbeat CPU 0 instructions: 60000000 cycles: 43330947 heartbeat IPC: 1.28996 cumulative IPC: 1.26675 (Simulation time: 1 hr 18 min 51 sec) 
Heartbeat CPU 0 instructions: 61000001 cycles: 44018282 heartbeat IPC: 1.4549 cumulative IPC: 1.26997 (Simulation time: 1 hr 20 min 25 sec) 
Heartbeat CPU 0 instructions: 62000000 cycles: 44815833 heartbeat IPC: 1.25384 cumulative IPC: 1.26966 (Simulation time: 1 hr 21 min 58 sec) 
Heartbeat CPU 0 instructions: 63000002 cycles: 45563573 heartbeat IPC: 1.33737 cumulative IPC: 1.27087 (Simulation time: 1 hr 23 min 33 sec) 
Heartbeat CPU 0 instructions: 64000000 cycles: 46278419 heartbeat IPC: 1.3989 cumulative IPC: 1.27303 (Simulation time: 1 hr 25 min 8 sec) 
Heartbeat CPU 0 instructions: 65000003 cycles: 47068064 heartbeat IPC: 1.2664 cumulative IPC: 1.27291 (Simulation time: 1 hr 26 min 38 sec) 
Heartbeat CPU 0 instructions: 66000000 cycles: 47815205 heartbeat IPC: 1.33843 cumulative IPC: 1.27402 (Simulation time: 1 hr 28 min 14 sec) 
Heartbeat CPU 0 instructions: 67000003 cycles: 48576836 heartbeat IPC: 1.31298 cumulative IPC: 1.27468 (Simulation time: 1 hr 29 min 50 sec) 
Heartbeat CPU 0 instructions: 68000000 cycles: 49372891 heartbeat IPC: 1.25619 cumulative IPC: 1.27436 (Simulation time: 1 hr 31 min 25 sec) 
Heartbeat CPU 0 instructions: 69000003 cycles: 50114556 heartbeat IPC: 1.34832 cumulative IPC: 1.27555 (Simulation time: 1 hr 33 min 2 sec) 
Heartbeat CPU 0 instructions: 70000000 cycles: 50854910 heartbeat IPC: 1.3507 cumulative IPC: 1.27673 (Simulation time: 1 hr 34 min 32 sec) 
Heartbeat CPU 0 instructions: 71000002 cycles: 51651665 heartbeat IPC: 1.25509 cumulative IPC: 1.27637 (Simulation time: 1 hr 36 min 5 sec) 
Heartbeat CPU 0 instructions: 72000000 cycles: 52376256 heartbeat IPC: 1.38009 cumulative IPC: 1.27792 (Simulation time: 1 hr 37 min 36 sec) 
Heartbeat CPU 0 instructions: 73000003 cycles: 53117357 heartbeat IPC: 1.34935 cumulative IPC: 1.27899 (Simulation time: 1 hr 39 min 3 sec) 
Heartbeat CPU 0 instructions: 74000003 cycles: 53907753 heartbeat IPC: 1.26519 cumulative IPC: 1.27877 (Simulation time: 1 hr 40 min 36 sec) 
Heartbeat CPU 0 instructions: 75000003 cycles: 54631185 heartbeat IPC: 1.3823 cumulative IPC: 1.28025 (Simulation time: 1 hr 42 min 9 sec) 
Heartbeat CPU 0 instructions: 76000000 cycles: 55387840 heartbeat IPC: 1.3216 cumulative IPC: 1.28086 (Simulation time: 1 hr 43 min 47 sec) 
Heartbeat CPU 0 instructions: 77000003 cycles: 56206662 heartbeat IPC: 1.22127 cumulative IPC: 1.27992 (Simulation time: 1 hr 45 min 23 sec) 
Heartbeat CPU 0 instructions: 78000000 cycles: 56913452 heartbeat IPC: 1.41484 cumulative IPC: 1.28172 (Simulation time: 1 hr 46 min 53 sec) 
Heartbeat CPU 0 instructions: 79000003 cycles: 57671756 heartbeat IPC: 1.31874 cumulative IPC: 1.28224 (Simulation time: 1 hr 48 min 30 sec) 
Heartbeat CPU 0 instructions: 80000000 cycles: 58477225 heartbeat IPC: 1.24151 cumulative IPC: 1.28164 (Simulation time: 1 hr 50 min 3 sec) 
Heartbeat CPU 0 instructions: 81000001 cycles: 59167753 heartbeat IPC: 1.44817 cumulative IPC: 1.28372 (Simulation time: 1 hr 51 min 43 sec) 
Heartbeat CPU 0 instructions: 82000002 cycles: 59936329 heartbeat IPC: 1.30111 cumulative IPC: 1.28396 (Simulation time: 1 hr 53 min 25 sec) 
Heartbeat CPU 0 instructions: 83000003 cycles: 60753788 heartbeat IPC: 1.2233 cumulative IPC: 1.28309 (Simulation time: 1 hr 55 min 0 sec) 
Heartbeat CPU 0 instructions: 84000000 cycles: 61431975 heartbeat IPC: 1.47452 cumulative IPC: 1.28534 (Simulation time: 1 hr 56 min 48 sec) 
Heartbeat CPU 0 instructions: 85000001 cycles: 62216793 heartbeat IPC: 1.27418 cumulative IPC: 1.28519 (Simulation time: 1 hr 58 min 46 sec) 
Heartbeat CPU 0 instructions: 86000000 cycles: 63010429 heartbeat IPC: 1.26002 cumulative IPC: 1.28486 (Simulation time: 2 hr 0 min 42 sec) 
Heartbeat CPU 0 instructions: 87000003 cycles: 63683573 heartbeat IPC: 1.48557 cumulative IPC: 1.28711 (Simulation time: 2 hr 2 min 27 sec) 
Heartbeat CPU 0 instructions: 88000000 cycles: 64483706 heartbeat IPC: 1.24979 cumulative IPC: 1.28662 (Simulation time: 2 hr 4 min 27 sec) 
Heartbeat CPU 0 instructions: 89000002 cycles: 65262098 heartbeat IPC: 1.2847 cumulative IPC: 1.2866 (Simulation time: 2 hr 6 min 32 sec) 
Heartbeat CPU 0 instructions: 90000001 cycles: 65917173 heartbeat IPC: 1.52654 cumulative IPC: 1.28913 (Simulation time: 2 hr 8 min 21 sec) 
Heartbeat CPU 0 instructions: 91000001 cycles: 66716585 heartbeat IPC: 1.25092 cumulative IPC: 1.28864 (Simulation time: 2 hr 10 min 16 sec) 
Heartbeat CPU 0 instructions: 92000000 cycles: 67493025 heartbeat IPC: 1.28793 cumulative IPC: 1.28864 (Simulation time: 2 hr 12 min 14 sec) 
Heartbeat CPU 0 instructions: 93000002 cycles: 68145102 heartbeat IPC: 1.53356 cumulative IPC: 1.29112 (Simulation time: 2 hr 14 min 6 sec) 
Heartbeat CPU 0 instructions: 94000000 cycles: 68969655 heartbeat IPC: 1.21278 cumulative IPC: 1.29013 (Simulation time: 2 hr 15 min 54 sec) 
Heartbeat CPU 0 instructions: 95000000 cycles: 69745271 heartbeat IPC: 1.2893 cumulative IPC: 1.29012 (Simulation time: 2 hr 17 min 44 sec) 
Heartbeat CPU 0 instructions: 96000000 cycles: 70430400 heartbeat IPC: 1.45958 cumulative IPC: 1.29186 (Simulation time: 2 hr 19 min 30 sec) 
Heartbeat CPU 0 instructions: 97000002 cycles: 71609160 heartbeat IPC: 0.848351 cumulative IPC: 1.28415 (Simulation time: 2 hr 21 min 18 sec) 
Heartbeat CPU 0 instructions: 98000003 cycles: 72555750 heartbeat IPC: 1.05642 cumulative IPC: 1.28101 (Simulation time: 2 hr 23 min 9 sec) 
Heartbeat CPU 0 instructions: 99000001 cycles: 73366650 heartbeat IPC: 1.2332 cumulative IPC: 1.28045 (Simulation time: 2 hr 24 min 50 sec) 
Heartbeat CPU 0 instructions: 100000000 cycles: 74033719 heartbeat IPC: 1.49909 cumulative IPC: 1.28253 (Simulation time: 2 hr 26 min 28 sec) 
Heartbeat CPU 0 instructions: 101000001 cycles: 75384824 heartbeat IPC: 0.740136 cumulative IPC: 1.27228 (Simulation time: 2 hr 28 min 20 sec) 
Heartbeat CPU 0 instructions: 102000002 cycles: 76218863 heartbeat IPC: 1.19899 cumulative IPC: 1.27144 (Simulation time: 2 hr 29 min 51 sec) 
Heartbeat CPU 0 instructions: 103000001 cycles: 76971855 heartbeat IPC: 1.32803 cumulative IPC: 1.27202 (Simulation time: 2 hr 31 min 17 sec) 
Heartbeat CPU 0 instructions: 104000000 cycles: 78146007 heartbeat IPC: 0.851678 cumulative IPC: 1.26538 (Simulation time: 2 hr 32 min 48 sec) 
Heartbeat CPU 0 instructions: 105000002 cycles: 78984691 heartbeat IPC: 1.19235 cumulative IPC: 1.26456 (Simulation time: 2 hr 34 min 12 sec) 
Heartbeat CPU 0 instructions: 106000000 cycles: 79769786 heartbeat IPC: 1.27373 cumulative IPC: 1.26466 (Simulation time: 2 hr 35 min 36 sec) 
Heartbeat CPU 0 instructions: 107000000 cycles: 80763748 heartbeat IPC: 1.00607 cumulative IPC: 1.26131 (Simulation time: 2 hr 37 min 3 sec) 
Heartbeat CPU 0 instructions: 108000000 cycles: 81747816 heartbeat IPC: 1.01619 cumulative IPC: 1.25822 (Simulation time: 2 hr 38 min 29 sec) 
Heartbeat CPU 0 instructions: 109000003 cycles: 82554799 heartbeat IPC: 1.23919 cumulative IPC: 1.25802 (Simulation time: 2 hr 39 min 40 sec) 
Heartbeat CPU 0 instructions: 110000000 cycles: 83335914 heartbeat IPC: 1.28022 cumulative IPC: 1.25824 (Simulation time: 2 hr 40 min 39 sec) 
Finished CPU 0 instructions: 100000003 cycles: 79476074 cummulative IPC: 1.25824 (Simulation time: 2 hr 40 min 39 sec) 

ChampSim completed all CPUs

Region of Interest Statistics

CPU 0 cummulative IPC: 1.25824 instructions: 100000003 cycles: 79476074
LLC TOTAL     ACCESS:    1445907  HIT:     892355  MISS:     553552
LLC LOAD      ACCESS:     118974  HIT:     101245  MISS:      17729
LLC RFO       ACCESS:     121990  HIT:     120085  MISS:       1905
LLC PREFETCH  ACCESS:    1076549  HIT:     542860  MISS:     533689
LLC WRITEBACK ACCESS:     128394  HIT:     128165  MISS:        229
