
*** ChampSim Multicore Out-of-Order Simulator ***

Warmup Instructions: 10000000
Simulation Instructions: 100000000
Configuration: 2
Number of CPUs: 1
LLC sets: 2048
LLC ways: 16
Off-chip DRAM Channels: 1 Width: 64-bit Data Rate: 1600 MT/s

CPU 0 runs /datasets/cs240c-wi22-a00-public/data/Assignment2-gz/milc_409B.trace.gz
CPU 0 L1D next line prefetcher
CPU 0 L2C IP-based stride prefetcher
config 2, num_core 1, llc_sets 2048
Heartbeat CPU 0 instructions: 1000002 cycles: 407040 heartbeat IPC: 2.45677 cumulative IPC: 2.45677 (Simulation time: 0 hr 1 min 42 sec) 
Heartbeat CPU 0 instructions: 2000002 cycles: 889868 heartbeat IPC: 2.07113 cumulative IPC: 2.24753 (Simulation time: 0 hr 3 min 48 sec) 
Heartbeat CPU 0 instructions: 3000003 cycles: 1672035 heartbeat IPC: 1.2785 cumulative IPC: 1.79422 (Simulation time: 0 hr 6 min 27 sec) 
Heartbeat CPU 0 instructions: 4000000 cycles: 2454292 heartbeat IPC: 1.27835 cumulative IPC: 1.6298 (Simulation time: 0 hr 9 min 13 sec) 
Heartbeat CPU 0 instructions: 5000000 cycles: 3135412 heartbeat IPC: 1.46817 cumulative IPC: 1.59469 (Simulation time: 0 hr 11 min 40 sec) 
Heartbeat CPU 0 instructions: 6000003 cycles: 3679804 heartbeat IPC: 1.83692 cumulative IPC: 1.63052 (Simulation time: 0 hr 13 min 46 sec) 
Heartbeat CPU 0 instructions: 7000002 cycles: 4224110 heartbeat IPC: 1.8372 cumulative IPC: 1.65715 (Simulation time: 0 hr 15 min 48 sec) 
Heartbeat CPU 0 instructions: 8000000 cycles: 4768518 heartbeat IPC: 1.83685 cumulative IPC: 1.67767 (Simulation time: 0 hr 17 min 35 sec) 
Heartbeat CPU 0 instructions: 9000003 cycles: 5312844 heartbeat IPC: 1.83714 cumulative IPC: 1.69401 (Simulation time: 0 hr 19 min 25 sec) 
Heartbeat CPU 0 instructions: 10000000 cycles: 5857232 heartbeat IPC: 1.83692 cumulative IPC: 1.70729 (Simulation time: 0 hr 21 min 12 sec) 

Warmup complete CPU 0 instructions: 10000002 cycles: 5857233 (Simulation time: 0 hr 21 min 12 sec) 

Heartbeat CPU 0 instructions: 11000002 cycles: 7516493 heartbeat IPC: 0.602679 cumulative IPC: 0.602678 (Simulation time: 0 hr 23 min 16 sec) 
Heartbeat CPU 0 instructions: 12000000 cycles: 9170446 heartbeat IPC: 0.604611 cumulative IPC: 0.603643 (Simulation time: 0 hr 25 min 27 sec) 
Heartbeat CPU 0 instructions: 13000003 cycles: 10827805 heartbeat IPC: 0.603371 cumulative IPC: 0.603552 (Simulation time: 0 hr 27 min 45 sec) 
Heartbeat CPU 0 instructions: 14000002 cycles: 12483266 heartbeat IPC: 0.604061 cumulative IPC: 0.603679 (Simulation time: 0 hr 30 min 4 sec) 
Heartbeat CPU 0 instructions: 15000001 cycles: 14139573 heartbeat IPC: 0.603752 cumulative IPC: 0.603694 (Simulation time: 0 hr 32 min 26 sec) 
Heartbeat CPU 0 instructions: 16000000 cycles: 15800182 heartbeat IPC: 0.602188 cumulative IPC: 0.603442 (Simulation time: 0 hr 34 min 57 sec) 
Heartbeat CPU 0 instructions: 17000002 cycles: 17454232 heartbeat IPC: 0.604578 cumulative IPC: 0.603604 (Simulation time: 0 hr 37 min 26 sec) 
Heartbeat CPU 0 instructions: 18000000 cycles: 19109700 heartbeat IPC: 0.604058 cumulative IPC: 0.603661 (Simulation time: 0 hr 39 min 41 sec) 
Heartbeat CPU 0 instructions: 19000003 cycles: 20769511 heartbeat IPC: 0.60248 cumulative IPC: 0.60353 (Simulation time: 0 hr 41 min 59 sec) 
Heartbeat CPU 0 instructions: 20000000 cycles: 22425574 heartbeat IPC: 0.60384 cumulative IPC: 0.603561 (Simulation time: 0 hr 44 min 14 sec) 
Heartbeat CPU 0 instructions: 21000001 cycles: 24075744 heartbeat IPC: 0.605999 cumulative IPC: 0.603781 (Simulation time: 0 hr 46 min 23 sec) 
Heartbeat CPU 0 instructions: 22000002 cycles: 25732187 heartbeat IPC: 0.603704 cumulative IPC: 0.603775 (Simulation time: 0 hr 48 min 43 sec) 
Heartbeat CPU 0 instructions: 23000002 cycles: 27392498 heartbeat IPC: 0.602297 cumulative IPC: 0.603661 (Simulation time: 0 hr 51 min 5 sec) 
Heartbeat CPU 0 instructions: 24000000 cycles: 29044782 heartbeat IPC: 0.605222 cumulative IPC: 0.603772 (Simulation time: 0 hr 53 min 30 sec) 
Heartbeat CPU 0 instructions: 25000002 cycles: 30705054 heartbeat IPC: 0.602312 cumulative IPC: 0.603675 (Simulation time: 0 hr 55 min 45 sec) 
Heartbeat CPU 0 instructions: 26000000 cycles: 32359410 heartbeat IPC: 0.604464 cumulative IPC: 0.603724 (Simulation time: 0 hr 57 min 59 sec) 
Heartbeat CPU 0 instructions: 27000002 cycles: 34014219 heartbeat IPC: 0.604301 cumulative IPC: 0.603758 (Simulation time: 0 hr 59 min 44 sec) 
Heartbeat CPU 0 instructions: 28000000 cycles: 35669513 heartbeat IPC: 0.604121 cumulative IPC: 0.603778 (Simulation time: 1 hr 1 min 30 sec) 
Heartbeat CPU 0 instructions: 29000002 cycles: 37319049 heartbeat IPC: 0.606232 cumulative IPC: 0.603907 (Simulation time: 1 hr 3 min 9 sec) 
Heartbeat CPU 0 instructions: 30000000 cycles: 38968632 heartbeat IPC: 0.606213 cumulative IPC: 0.604022 (Simulation time: 1 hr 4 min 54 sec) 
Heartbeat CPU 0 instructions: 31000000 cycles: 40623939 heartbeat IPC: 0.604118 cumulative IPC: 0.604026 (Simulation time: 1 hr 6 min 35 sec) 
Heartbeat CPU 0 instructions: 32000000 cycles: 42282780 heartbeat IPC: 0.602831 cumulative IPC: 0.603972 (Simulation time: 1 hr 8 min 18 sec) 
Heartbeat CPU 0 instructions: 33000000 cycles: 43939475 heartbeat IPC: 0.603611 cumulative IPC: 0.603956 (Simulation time: 1 hr 10 min 3 sec) 
Heartbeat CPU 0 instructions: 34000000 cycles: 45594274 heartbeat IPC: 0.604303 cumulative IPC: 0.60397 (Simulation time: 1 hr 11 min 40 sec) 
Heartbeat CPU 0 instructions: 35000002 cycles: 47247455 heartbeat IPC: 0.604896 cumulative IPC: 0.604007 (Simulation time: 1 hr 13 min 25 sec) 
Heartbeat CPU 0 instructions: 36000000 cycles: 48899788 heartbeat IPC: 0.605204 cumulative IPC: 0.604053 (Simulation time: 1 hr 15 min 16 sec) 
Heartbeat CPU 0 instructions: 37000000 cycles: 50552899 heartbeat IPC: 0.60492 cumulative IPC: 0.604085 (Simulation time: 1 hr 16 min 58 sec) 
Heartbeat CPU 0 instructions: 38000002 cycles: 52203990 heartbeat IPC: 0.605661 cumulative IPC: 0.604142 (Simulation time: 1 hr 18 min 52 sec) 
Heartbeat CPU 0 instructions: 39000001 cycles: 53859596 heartbeat IPC: 0.604008 cumulative IPC: 0.604137 (Simulation time: 1 hr 20 min 48 sec) 
Heartbeat CPU 0 instructions: 40000000 cycles: 55514057 heartbeat IPC: 0.604426 cumulative IPC: 0.604147 (Simulation time: 1 hr 22 min 44 sec) 
Heartbeat CPU 0 instructions: 41000002 cycles: 57166221 heartbeat IPC: 0.605268 cumulative IPC: 0.604183 (Simulation time: 1 hr 24 min 36 sec) 
Heartbeat CPU 0 instructions: 42000001 cycles: 58821859 heartbeat IPC: 0.603996 cumulative IPC: 0.604177 (Simulation time: 1 hr 26 min 19 sec) 
Heartbeat CPU 0 instructions: 43000000 cycles: 60472955 heartbeat IPC: 0.605658 cumulative IPC: 0.604222 (Simulation time: 1 hr 28 min 16 sec) 
Heartbeat CPU 0 instructions: 44000000 cycles: 62132840 heartbeat IPC: 0.602451 cumulative IPC: 0.604169 (Simulation time: 1 hr 30 min 18 sec) 
Heartbeat CPU 0 instructions: 45000000 cycles: 63785080 heartbeat IPC: 0.605239 cumulative IPC: 0.6042 (Simulation time: 1 hr 32 min 25 sec) 
Heartbeat CPU 0 instructions: 46000000 cycles: 65438480 heartbeat IPC: 0.604814 cumulative IPC: 0.604217 (Simulation time: 1 hr 34 min 15 sec) 
Heartbeat CPU 0 instructions: 47000002 cycles: 67092685 heartbeat IPC: 0.604521 cumulative IPC: 0.604225 (Simulation time: 1 hr 36 min 12 sec) 
Heartbeat CPU 0 instructions: 48000000 cycles: 68748759 heartbeat IPC: 0.603837 cumulative IPC: 0.604215 (Simulation time: 1 hr 38 min 3 sec) 
Heartbeat CPU 0 instructions: 49000000 cycles: 70404178 heartbeat IPC: 0.604077 cumulative IPC: 0.604211 (Simulation time: 1 hr 39 min 58 sec) 
Heartbeat CPU 0 instructions: 50000001 cycles: 72059286 heartbeat IPC: 0.604191 cumulative IPC: 0.604211 (Simulation time: 1 hr 41 min 53 sec) 
Heartbeat CPU 0 instructions: 51000002 cycles: 73715834 heartbeat IPC: 0.603666 cumulative IPC: 0.604198 (Simulation time: 1 hr 43 min 41 sec) 
Heartbeat CPU 0 instructions: 52000000 cycles: 75602463 heartbeat IPC: 0.530045 cumulative IPC: 0.602192 (Simulation time: 1 hr 45 min 38 sec) 
Heartbeat CPU 0 instructions: 53000001 cycles: 77712571 heartbeat IPC: 0.47391 cumulative IPC: 0.598425 (Simulation time: 1 hr 47 min 43 sec) 
Heartbeat CPU 0 instructions: 54000001 cycles: 79806499 heartbeat IPC: 0.477571 cumulative IPC: 0.595003 (Simulation time: 1 hr 49 min 46 sec) 
Heartbeat CPU 0 instructions: 55000002 cycles: 81935212 heartbeat IPC: 0.469768 cumulative IPC: 0.591498 (Simulation time: 1 hr 51 min 49 sec) 
Heartbeat CPU 0 instructions: 56000000 cycles: 84076544 heartbeat IPC: 0.466998 cumulative IPC: 0.58809 (Simulation time: 1 hr 53 min 35 sec) 
Heartbeat CPU 0 instructions: 57000000 cycles: 86234249 heartbeat IPC: 0.463455 cumulative IPC: 0.584744 (Simulation time: 1 hr 55 min 30 sec) 
Heartbeat CPU 0 instructions: 58000002 cycles: 88317622 heartbeat IPC: 0.479992 cumulative IPC: 0.582098 (Simulation time: 1 hr 57 min 33 sec) 
Heartbeat CPU 0 instructions: 59000001 cycles: 90076057 heartbeat IPC: 0.568687 cumulative IPC: 0.581818 (Simulation time: 1 hr 59 min 16 sec) 
Heartbeat CPU 0 instructions: 60000000 cycles: 91742995 heartbeat IPC: 0.599902 cumulative IPC: 0.582169 (Simulation time: 2 hr 0 min 53 sec) 
Heartbeat CPU 0 instructions: 61000000 cycles: 93407444 heartbeat IPC: 0.600799 cumulative IPC: 0.582523 (Simulation time: 2 hr 2 min 39 sec) 
Heartbeat CPU 0 instructions: 62000000 cycles: 95074214 heartbeat IPC: 0.599963 cumulative IPC: 0.582849 (Simulation time: 2 hr 4 min 16 sec) 
Heartbeat CPU 0 instructions: 63000003 cycles: 96739457 heartbeat IPC: 0.600515 cumulative IPC: 0.583172 (Simulation time: 2 hr 5 min 55 sec) 
Heartbeat CPU 0 instructions: 64000000 cycles: 98406027 heartbeat IPC: 0.600033 cumulative IPC: 0.583476 (Simulation time: 2 hr 7 min 32 sec) 
Heartbeat CPU 0 instructions: 65000002 cycles: 100076976 heartbeat IPC: 0.598464 cumulative IPC: 0.583742 (Simulation time: 2 hr 9 min 15 sec) 
Heartbeat CPU 0 instructions: 66000002 cycles: 101738616 heartbeat IPC: 0.601815 cumulative IPC: 0.584055 (Simulation time: 2 hr 10 min 56 sec) 
Heartbeat CPU 0 instructions: 67000001 cycles: 103403011 heartbeat IPC: 0.600818 cumulative IPC: 0.584341 (Simulation time: 2 hr 12 min 36 sec) 
Heartbeat CPU 0 instructions: 68000000 cycles: 105070498 heartbeat IPC: 0.599704 cumulative IPC: 0.584599 (Simulation time: 2 hr 14 min 36 sec) 
Heartbeat CPU 0 instructions: 69000000 cycles: 106735099 heartbeat IPC: 0.600745 cumulative IPC: 0.584866 (Simulation time: 2 hr 16 min 9 sec) 
Heartbeat CPU 0 instructions: 70000000 cycles: 108404283 heartbeat IPC: 0.599095 cumulative IPC: 0.585097 (Simulation time: 2 hr 17 min 44 sec) 
Heartbeat CPU 0 instructions: 71000002 cycles: 110067552 heartbeat IPC: 0.601227 cumulative IPC: 0.585355 (Simulation time: 2 hr 19 min 18 sec) 
Heartbeat CPU 0 instructions: 72000000 cycles: 111733933 heartbeat IPC: 0.600102 cumulative IPC: 0.585587 (Simulation time: 2 hr 20 min 56 sec) 
Heartbeat CPU 0 instructions: 73000003 cycles: 113398164 heartbeat IPC: 0.60088 cumulative IPC: 0.585823 (Simulation time: 2 hr 22 min 27 sec) 
Heartbeat CPU 0 instructions: 74000002 cycles: 115067407 heartbeat IPC: 0.599073 cumulative IPC: 0.586026 (Simulation time: 2 hr 24 min 0 sec) 
Heartbeat CPU 0 instructions: 75000003 cycles: 116731708 heartbeat IPC: 0.600853 cumulative IPC: 0.586249 (Simulation time: 2 hr 25 min 28 sec) 
Heartbeat CPU 0 instructions: 76000000 cycles: 118399757 heartbeat IPC: 0.599501 cumulative IPC: 0.586445 (Simulation time: 2 hr 26 min 59 sec) 
Heartbeat CPU 0 instructions: 77000003 cycles: 120069823 heartbeat IPC: 0.598781 cumulative IPC: 0.586625 (Simulation time: 2 hr 28 min 27 sec) 
Heartbeat CPU 0 instructions: 78000000 cycles: 121734654 heartbeat IPC: 0.60066 cumulative IPC: 0.586827 (Simulation time: 2 hr 30 min 3 sec) 
Heartbeat CPU 0 instructions: 79000000 cycles: 123401310 heartbeat IPC: 0.600004 cumulative IPC: 0.587014 (Simulation time: 2 hr 31 min 34 sec) 
Heartbeat CPU 0 instructions: 80000000 cycles: 125064418 heartbeat IPC: 0.601284 cumulative IPC: 0.587213 (Simulation time: 2 hr 33 min 12 sec) 
Heartbeat CPU 0 instructions: 81000000 cycles: 126732443 heartbeat IPC: 0.599511 cumulative IPC: 0.587383 (Simulation time: 2 hr 34 min 41 sec) 
Heartbeat CPU 0 instructions: 82000002 cycles: 128393612 heartbeat IPC: 0.601987 cumulative IPC: 0.587581 (Simulation time: 2 hr 36 min 18 sec) 
Heartbeat CPU 0 instructions: 83000003 cycles: 130052488 heartbeat IPC: 0.602818 cumulative IPC: 0.587784 (Simulation time: 2 hr 37 min 42 sec) 
Heartbeat CPU 0 instructions: 84000000 cycles: 131713488 heartbeat IPC: 0.602045 cumulative IPC: 0.587972 (Simulation time: 2 hr 39 min 10 sec) 
Heartbeat CPU 0 instructions: 85000001 cycles: 133372554 heartbeat IPC: 0.602749 cumulative IPC: 0.588165 (Simulation time: 2 hr 40 min 41 sec) 
Heartbeat CPU 0 instructions: 86000002 cycles: 135035759 heartbeat IPC: 0.601249 cumulative IPC: 0.588333 (Simulation time: 2 hr 42 min 1 sec) 
Heartbeat CPU 0 instructions: 87000003 cycles: 136700129 heartbeat IPC: 0.600829 cumulative IPC: 0.588492 (Simulation time: 2 hr 43 min 20 sec) 
Heartbeat CPU 0 instructions: 88000000 cycles: 138364381 heartbeat IPC: 0.600869 cumulative IPC: 0.588647 (Simulation time: 2 hr 44 min 39 sec) 
Heartbeat CPU 0 instructions: 89000001 cycles: 140025972 heartbeat IPC: 0.601833 cumulative IPC: 0.588811 (Simulation time: 2 hr 45 min 54 sec) 
Heartbeat CPU 0 instructions: 90000002 cycles: 141690785 heartbeat IPC: 0.600669 cumulative IPC: 0.588956 (Simulation time: 2 hr 46 min 52 sec) 
Heartbeat CPU 0 instructions: 91000000 cycles: 143349397 heartbeat IPC: 0.602913 cumulative IPC: 0.589124 (Simulation time: 2 hr 47 min 43 sec) 
Heartbeat CPU 0 instructions: 92000000 cycles: 145010313 heartbeat IPC: 0.602077 cumulative IPC: 0.589279 (Simulation time: 2 hr 48 min 28 sec) 
Heartbeat CPU 0 instructions: 93000003 cycles: 146672021 heartbeat IPC: 0.601792 cumulative IPC: 0.589427 (Simulation time: 2 hr 49 min 16 sec) 
Heartbeat CPU 0 instructions: 94000002 cycles: 148333361 heartbeat IPC: 0.601923 cumulative IPC: 0.589572 (Simulation time: 2 hr 49 min 55 sec) 
Heartbeat CPU 0 instructions: 95000003 cycles: 149993742 heartbeat IPC: 0.602272 cumulative IPC: 0.589719 (Simulation time: 2 hr 50 min 29 sec) 
Heartbeat CPU 0 instructions: 96000000 cycles: 151652230 heartbeat IPC: 0.602957 cumulative IPC: 0.589869 (Simulation time: 2 hr 51 min 5 sec) 
Heartbeat CPU 0 instructions: 97000001 cycles: 153316756 heartbeat IPC: 0.600772 cumulative IPC: 0.589992 (Simulation time: 2 hr 51 min 37 sec) 
Heartbeat CPU 0 instructions: 98000002 cycles: 154978219 heartbeat IPC: 0.60188 cumulative IPC: 0.590125 (Simulation time: 2 hr 52 min 8 sec) 
Heartbeat CPU 0 instructions: 99000003 cycles: 156640838 heartbeat IPC: 0.601461 cumulative IPC: 0.59025 (Simulation time: 2 hr 52 min 40 sec) 
Heartbeat CPU 0 instructions: 100000000 cycles: 158300245 heartbeat IPC: 0.602623 cumulative IPC: 0.590385 (Simulation time: 2 hr 53 min 9 sec) 
Heartbeat CPU 0 instructions: 101000001 cycles: 159956996 heartbeat IPC: 0.603592 cumulative IPC: 0.590527 (Simulation time: 2 hr 53 min 38 sec) 
Heartbeat CPU 0 instructions: 102000002 cycles: 161618855 heartbeat IPC: 0.601736 cumulative IPC: 0.590646 (Simulation time: 2 hr 54 min 4 sec) 
Heartbeat CPU 0 instructions: 103000000 cycles: 163278784 heartbeat IPC: 0.602434 cumulative IPC: 0.59077 (Simulation time: 2 hr 54 min 29 sec) 
Heartbeat CPU 0 instructions: 104000000 cycles: 164935027 heartbeat IPC: 0.603776 cumulative IPC: 0.590906 (Simulation time: 2 hr 54 min 53 sec) 
Heartbeat CPU 0 instructions: 105000003 cycles: 166836234 heartbeat IPC: 0.525983 cumulative IPC: 0.590139 (Simulation time: 2 hr 55 min 18 sec) 
Heartbeat CPU 0 instructions: 106000003 cycles: 170511713 heartbeat IPC: 0.272073 cumulative IPC: 0.583039 (Simulation time: 2 hr 55 min 54 sec) 
Heartbeat CPU 0 instructions: 107000000 cycles: 172289892 heartbeat IPC: 0.562371 cumulative IPC: 0.582818 (Simulation time: 2 hr 56 min 11 sec) 
Heartbeat CPU 0 instructions: 108000000 cycles: 174061391 heartbeat IPC: 0.564494 cumulative IPC: 0.582625 (Simulation time: 2 hr 56 min 26 sec) 
Heartbeat CPU 0 instructions: 109000001 cycles: 175835504 heartbeat IPC: 0.563663 cumulative IPC: 0.582427 (Simulation time: 2 hr 56 min 41 sec) 
Heartbeat CPU 0 instructions: 110000001 cycles: 177610887 heartbeat IPC: 0.563259 cumulative IPC: 0.582229 (Simulation time: 2 hr 56 min 56 sec) 
Finished CPU 0 instructions: 100000003 cycles: 171753655 cummulative IPC: 0.582229 (Simulation time: 2 hr 56 min 56 sec) 

ChampSim completed all CPUs

Region of Interest Statistics

CPU 0 cummulative IPC: 0.582229 instructions: 100000003 cycles: 171753655
LLC TOTAL     ACCESS:    3300884  HIT:       2598  MISS:    3298286
LLC LOAD      ACCESS:     970159  HIT:         34  MISS:     970125
LLC RFO       ACCESS:     136847  HIT:        131  MISS:     136716
LLC PREFETCH  ACCESS:    1335789  HIT:       2302  MISS:    1333487
LLC WRITEBACK ACCESS:     858089  HIT:        131  MISS:     857958
