
*** ChampSim Multicore Out-of-Order Simulator ***

Warmup Instructions: 10000000
Simulation Instructions: 100000000
Configuration: 2
Number of CPUs: 1
LLC sets: 2048
LLC ways: 16
Off-chip DRAM Channels: 1 Width: 64-bit Data Rate: 1600 MT/s

CPU 0 runs /datasets/cs240c-wi22-a00-public/data/Assignment2-gz/perlbench_105B.trace.gz
CPU 0 L1D next line prefetcher
CPU 0 L2C IP-based stride prefetcher
config 2, num_core 1, llc_sets 2048
Heartbeat CPU 0 instructions: 1000000 cycles: 578016 heartbeat IPC: 1.73006 cumulative IPC: 1.73006 (Simulation time: 0 hr 1 min 43 sec) 
Heartbeat CPU 0 instructions: 2000001 cycles: 1164321 heartbeat IPC: 1.7056 cumulative IPC: 1.71774 (Simulation time: 0 hr 3 min 31 sec) 
Heartbeat CPU 0 instructions: 3000001 cycles: 1726557 heartbeat IPC: 1.77861 cumulative IPC: 1.73756 (Simulation time: 0 hr 5 min 0 sec) 
Heartbeat CPU 0 instructions: 4000000 cycles: 2305993 heartbeat IPC: 1.72581 cumulative IPC: 1.73461 (Simulation time: 0 hr 6 min 36 sec) 
Heartbeat CPU 0 instructions: 5000003 cycles: 2884260 heartbeat IPC: 1.72931 cumulative IPC: 1.73355 (Simulation time: 0 hr 8 min 16 sec) 
Heartbeat CPU 0 instructions: 6000003 cycles: 3447519 heartbeat IPC: 1.77538 cumulative IPC: 1.74038 (Simulation time: 0 hr 9 min 46 sec) 
Heartbeat CPU 0 instructions: 7000000 cycles: 4019987 heartbeat IPC: 1.74682 cumulative IPC: 1.7413 (Simulation time: 0 hr 11 min 19 sec) 
Heartbeat CPU 0 instructions: 8000000 cycles: 4598049 heartbeat IPC: 1.72992 cumulative IPC: 1.73987 (Simulation time: 0 hr 12 min 51 sec) 
Heartbeat CPU 0 instructions: 9000000 cycles: 5176571 heartbeat IPC: 1.72854 cumulative IPC: 1.7386 (Simulation time: 0 hr 14 min 19 sec) 
Heartbeat CPU 0 instructions: 10000002 cycles: 5745489 heartbeat IPC: 1.75773 cumulative IPC: 1.7405 (Simulation time: 0 hr 15 min 46 sec) 

Warmup complete CPU 0 instructions: 10000002 cycles: 5745489 (Simulation time: 0 hr 15 min 46 sec) 

Heartbeat CPU 0 instructions: 11000002 cycles: 8079760 heartbeat IPC: 0.428399 cumulative IPC: 0.428399 (Simulation time: 0 hr 17 min 51 sec) 
Heartbeat CPU 0 instructions: 12000000 cycles: 10435599 heartbeat IPC: 0.424476 cumulative IPC: 0.426429 (Simulation time: 0 hr 19 min 53 sec) 
Heartbeat CPU 0 instructions: 13000000 cycles: 12866632 heartbeat IPC: 0.411348 cumulative IPC: 0.42128 (Simulation time: 0 hr 21 min 58 sec) 
Heartbeat CPU 0 instructions: 14000000 cycles: 15244606 heartbeat IPC: 0.420526 cumulative IPC: 0.421092 (Simulation time: 0 hr 24 min 4 sec) 
Heartbeat CPU 0 instructions: 15000000 cycles: 17595618 heartbeat IPC: 0.425349 cumulative IPC: 0.421936 (Simulation time: 0 hr 26 min 3 sec) 
Heartbeat CPU 0 instructions: 16000000 cycles: 19976093 heartbeat IPC: 0.420084 cumulative IPC: 0.421626 (Simulation time: 0 hr 28 min 3 sec) 
Heartbeat CPU 0 instructions: 17000003 cycles: 22368505 heartbeat IPC: 0.417989 cumulative IPC: 0.421103 (Simulation time: 0 hr 30 min 3 sec) 
Heartbeat CPU 0 instructions: 18000000 cycles: 24612402 heartbeat IPC: 0.445652 cumulative IPC: 0.424023 (Simulation time: 0 hr 32 min 4 sec) 
Heartbeat CPU 0 instructions: 19000000 cycles: 27117282 heartbeat IPC: 0.399221 cumulative IPC: 0.421116 (Simulation time: 0 hr 34 min 5 sec) 
Heartbeat CPU 0 instructions: 20000000 cycles: 29620732 heartbeat IPC: 0.399449 cumulative IPC: 0.418844 (Simulation time: 0 hr 36 min 10 sec) 
Heartbeat CPU 0 instructions: 21000001 cycles: 32122235 heartbeat IPC: 0.39976 cumulative IPC: 0.417034 (Simulation time: 0 hr 38 min 9 sec) 
Heartbeat CPU 0 instructions: 22000001 cycles: 34618056 heartbeat IPC: 0.40067 cumulative IPC: 0.415619 (Simulation time: 0 hr 40 min 13 sec) 
Heartbeat CPU 0 instructions: 23000000 cycles: 37109945 heartbeat IPC: 0.401302 cumulative IPC: 0.414482 (Simulation time: 0 hr 42 min 15 sec) 
Heartbeat CPU 0 instructions: 24000000 cycles: 39592832 heartbeat IPC: 0.402757 cumulative IPC: 0.413622 (Simulation time: 0 hr 44 min 20 sec) 
Heartbeat CPU 0 instructions: 25000001 cycles: 42055416 heartbeat IPC: 0.406078 cumulative IPC: 0.41311 (Simulation time: 0 hr 46 min 23 sec) 
Heartbeat CPU 0 instructions: 26000001 cycles: 44327979 heartbeat IPC: 0.440032 cumulative IPC: 0.414696 (Simulation time: 0 hr 48 min 24 sec) 
Heartbeat CPU 0 instructions: 27000003 cycles: 46822809 heartbeat IPC: 0.40083 cumulative IPC: 0.413854 (Simulation time: 0 hr 50 min 25 sec) 
Heartbeat CPU 0 instructions: 28000000 cycles: 49326095 heartbeat IPC: 0.399474 cumulative IPC: 0.413028 (Simulation time: 0 hr 52 min 22 sec) 
Heartbeat CPU 0 instructions: 29000001 cycles: 51827756 heartbeat IPC: 0.399735 cumulative IPC: 0.412306 (Simulation time: 0 hr 54 min 22 sec) 
Heartbeat CPU 0 instructions: 30000001 cycles: 54325160 heartbeat IPC: 0.400416 cumulative IPC: 0.411695 (Simulation time: 0 hr 56 min 23 sec) 
Heartbeat CPU 0 instructions: 31000000 cycles: 56816976 heartbeat IPC: 0.401313 cumulative IPC: 0.411188 (Simulation time: 0 hr 58 min 23 sec) 
Heartbeat CPU 0 instructions: 32000000 cycles: 59302103 heartbeat IPC: 0.402394 cumulative IPC: 0.41078 (Simulation time: 1 hr 0 min 32 sec) 
Heartbeat CPU 0 instructions: 33000001 cycles: 61770175 heartbeat IPC: 0.405175 cumulative IPC: 0.410533 (Simulation time: 1 hr 2 min 35 sec) 
Heartbeat CPU 0 instructions: 34000002 cycles: 64180929 heartbeat IPC: 0.414808 cumulative IPC: 0.41071 (Simulation time: 1 hr 4 min 34 sec) 
Heartbeat CPU 0 instructions: 35000002 cycles: 66644254 heartbeat IPC: 0.405955 cumulative IPC: 0.410517 (Simulation time: 1 hr 6 min 34 sec) 
Heartbeat CPU 0 instructions: 36000000 cycles: 69275210 heartbeat IPC: 0.380089 cumulative IPC: 0.409257 (Simulation time: 1 hr 8 min 20 sec) 
Heartbeat CPU 0 instructions: 37000001 cycles: 72356159 heartbeat IPC: 0.324576 cumulative IPC: 0.40534 (Simulation time: 1 hr 10 min 47 sec) 
Heartbeat CPU 0 instructions: 38000000 cycles: 75136601 heartbeat IPC: 0.359655 cumulative IPC: 0.40351 (Simulation time: 1 hr 12 min 43 sec) 
Heartbeat CPU 0 instructions: 39000000 cycles: 77975943 heartbeat IPC: 0.352194 cumulative IPC: 0.401493 (Simulation time: 1 hr 14 min 35 sec) 
Heartbeat CPU 0 instructions: 40000000 cycles: 80634768 heartbeat IPC: 0.376106 cumulative IPC: 0.400591 (Simulation time: 1 hr 16 min 25 sec) 
Heartbeat CPU 0 instructions: 41000000 cycles: 83275519 heartbeat IPC: 0.37868 cumulative IPC: 0.399845 (Simulation time: 1 hr 18 min 12 sec) 
Heartbeat CPU 0 instructions: 42000002 cycles: 85909985 heartbeat IPC: 0.379584 cumulative IPC: 0.399179 (Simulation time: 1 hr 19 min 58 sec) 
Heartbeat CPU 0 instructions: 43000000 cycles: 88561665 heartbeat IPC: 0.377119 cumulative IPC: 0.398473 (Simulation time: 1 hr 21 min 48 sec) 
Heartbeat CPU 0 instructions: 44000000 cycles: 91181022 heartbeat IPC: 0.381773 cumulative IPC: 0.397961 (Simulation time: 1 hr 23 min 35 sec) 
Heartbeat CPU 0 instructions: 45000001 cycles: 93818632 heartbeat IPC: 0.379131 cumulative IPC: 0.397397 (Simulation time: 1 hr 25 min 35 sec) 
Heartbeat CPU 0 instructions: 46000003 cycles: 96429379 heartbeat IPC: 0.383033 cumulative IPC: 0.396983 (Simulation time: 1 hr 27 min 25 sec) 
Heartbeat CPU 0 instructions: 47000002 cycles: 99036282 heartbeat IPC: 0.383597 cumulative IPC: 0.396609 (Simulation time: 1 hr 29 min 13 sec) 
Heartbeat CPU 0 instructions: 48000000 cycles: 101627978 heartbeat IPC: 0.385847 cumulative IPC: 0.396318 (Simulation time: 1 hr 31 min 2 sec) 
Heartbeat CPU 0 instructions: 49000002 cycles: 104223866 heartbeat IPC: 0.385225 cumulative IPC: 0.396026 (Simulation time: 1 hr 32 min 55 sec) 
Heartbeat CPU 0 instructions: 50000002 cycles: 106824275 heartbeat IPC: 0.384555 cumulative IPC: 0.395731 (Simulation time: 1 hr 34 min 43 sec) 
Heartbeat CPU 0 instructions: 51000003 cycles: 109432215 heartbeat IPC: 0.383445 cumulative IPC: 0.395422 (Simulation time: 1 hr 36 min 32 sec) 
Heartbeat CPU 0 instructions: 52000000 cycles: 112020195 heartbeat IPC: 0.386401 cumulative IPC: 0.395202 (Simulation time: 1 hr 38 min 19 sec) 
Heartbeat CPU 0 instructions: 53000000 cycles: 114598079 heartbeat IPC: 0.387915 cumulative IPC: 0.39503 (Simulation time: 1 hr 40 min 13 sec) 
Heartbeat CPU 0 instructions: 54000000 cycles: 117214558 heartbeat IPC: 0.382193 cumulative IPC: 0.394728 (Simulation time: 1 hr 42 min 8 sec) 
Heartbeat CPU 0 instructions: 55000003 cycles: 119776077 heartbeat IPC: 0.390395 cumulative IPC: 0.394631 (Simulation time: 1 hr 43 min 58 sec) 
Heartbeat CPU 0 instructions: 56000000 cycles: 122168219 heartbeat IPC: 0.418034 cumulative IPC: 0.395112 (Simulation time: 1 hr 45 min 57 sec) 
Heartbeat CPU 0 instructions: 57000002 cycles: 124443503 heartbeat IPC: 0.439506 cumulative IPC: 0.395963 (Simulation time: 1 hr 47 min 53 sec) 
Heartbeat CPU 0 instructions: 58000001 cycles: 125778931 heartbeat IPC: 0.748823 cumulative IPC: 0.399889 (Simulation time: 1 hr 49 min 22 sec) 
Heartbeat CPU 0 instructions: 59000002 cycles: 128048443 heartbeat IPC: 0.440624 cumulative IPC: 0.400644 (Simulation time: 1 hr 51 min 22 sec) 
Heartbeat CPU 0 instructions: 60000000 cycles: 130397505 heartbeat IPC: 0.425701 cumulative IPC: 0.401117 (Simulation time: 1 hr 53 min 24 sec) 
Heartbeat CPU 0 instructions: 61000002 cycles: 132846995 heartbeat IPC: 0.408249 cumulative IPC: 0.401254 (Simulation time: 1 hr 55 min 29 sec) 
Heartbeat CPU 0 instructions: 62000000 cycles: 135213283 heartbeat IPC: 0.422602 cumulative IPC: 0.401644 (Simulation time: 1 hr 57 min 32 sec) 
Heartbeat CPU 0 instructions: 63000000 cycles: 137575985 heartbeat IPC: 0.423244 cumulative IPC: 0.402031 (Simulation time: 1 hr 59 min 32 sec) 
Heartbeat CPU 0 instructions: 64000000 cycles: 139995479 heartbeat IPC: 0.41331 cumulative IPC: 0.402235 (Simulation time: 2 hr 1 min 32 sec) 
Heartbeat CPU 0 instructions: 65000003 cycles: 142320191 heartbeat IPC: 0.430162 cumulative IPC: 0.40271 (Simulation time: 2 hr 3 min 31 sec) 
Heartbeat CPU 0 instructions: 66000002 cycles: 144663424 heartbeat IPC: 0.42676 cumulative IPC: 0.403116 (Simulation time: 2 hr 5 min 32 sec) 
Heartbeat CPU 0 instructions: 67000001 cycles: 147018899 heartbeat IPC: 0.424542 cumulative IPC: 0.403473 (Simulation time: 2 hr 7 min 31 sec) 
Heartbeat CPU 0 instructions: 68000000 cycles: 149467090 heartbeat IPC: 0.408464 cumulative IPC: 0.403558 (Simulation time: 2 hr 9 min 37 sec) 
Heartbeat CPU 0 instructions: 69000001 cycles: 151819557 heartbeat IPC: 0.425086 cumulative IPC: 0.403905 (Simulation time: 2 hr 11 min 36 sec) 
Heartbeat CPU 0 instructions: 70000000 cycles: 154235395 heartbeat IPC: 0.413935 cumulative IPC: 0.404068 (Simulation time: 2 hr 13 min 42 sec) 
Heartbeat CPU 0 instructions: 71000000 cycles: 156621869 heartbeat IPC: 0.419028 cumulative IPC: 0.404305 (Simulation time: 2 hr 15 min 48 sec) 
Heartbeat CPU 0 instructions: 72000000 cycles: 158951061 heartbeat IPC: 0.429333 cumulative IPC: 0.404685 (Simulation time: 2 hr 17 min 45 sec) 
Heartbeat CPU 0 instructions: 73000000 cycles: 161284971 heartbeat IPC: 0.428466 cumulative IPC: 0.405042 (Simulation time: 2 hr 19 min 46 sec) 
Heartbeat CPU 0 instructions: 74000002 cycles: 163670545 heartbeat IPC: 0.419187 cumulative IPC: 0.405256 (Simulation time: 2 hr 21 min 44 sec) 
Heartbeat CPU 0 instructions: 75000000 cycles: 166093994 heartbeat IPC: 0.412634 cumulative IPC: 0.405367 (Simulation time: 2 hr 23 min 44 sec) 
Heartbeat CPU 0 instructions: 76000000 cycles: 168453461 heartbeat IPC: 0.423825 cumulative IPC: 0.405635 (Simulation time: 2 hr 25 min 43 sec) 
Heartbeat CPU 0 instructions: 77000000 cycles: 170887956 heartbeat IPC: 0.410763 cumulative IPC: 0.40571 (Simulation time: 2 hr 27 min 45 sec) 
Heartbeat CPU 0 instructions: 78000002 cycles: 173253615 heartbeat IPC: 0.422716 cumulative IPC: 0.40595 (Simulation time: 2 hr 29 min 40 sec) 
Heartbeat CPU 0 instructions: 79000001 cycles: 175590282 heartbeat IPC: 0.42796 cumulative IPC: 0.406253 (Simulation time: 2 hr 31 min 26 sec) 
Heartbeat CPU 0 instructions: 80000000 cycles: 177922290 heartbeat IPC: 0.428815 cumulative IPC: 0.406559 (Simulation time: 2 hr 33 min 2 sec) 
Heartbeat CPU 0 instructions: 81000000 cycles: 180345974 heartbeat IPC: 0.412595 cumulative IPC: 0.406643 (Simulation time: 2 hr 34 min 28 sec) 
Heartbeat CPU 0 instructions: 82000000 cycles: 182709566 heartbeat IPC: 0.423085 cumulative IPC: 0.406862 (Simulation time: 2 hr 35 min 41 sec) 
Heartbeat CPU 0 instructions: 83000002 cycles: 185030493 heartbeat IPC: 0.430863 cumulative IPC: 0.407173 (Simulation time: 2 hr 36 min 57 sec) 
Heartbeat CPU 0 instructions: 84000000 cycles: 187453045 heartbeat IPC: 0.412787 cumulative IPC: 0.407248 (Simulation time: 2 hr 38 min 12 sec) 
Heartbeat CPU 0 instructions: 85000000 cycles: 189828337 heartbeat IPC: 0.421001 cumulative IPC: 0.407425 (Simulation time: 2 hr 39 min 20 sec) 
Heartbeat CPU 0 instructions: 86000000 cycles: 192178127 heartbeat IPC: 0.42557 cumulative IPC: 0.407654 (Simulation time: 2 hr 40 min 24 sec) 
Heartbeat CPU 0 instructions: 87000001 cycles: 194624446 heartbeat IPC: 0.408778 cumulative IPC: 0.407669 (Simulation time: 2 hr 41 min 28 sec) 
Heartbeat CPU 0 instructions: 88000000 cycles: 196990100 heartbeat IPC: 0.422716 cumulative IPC: 0.407855 (Simulation time: 2 hr 42 min 25 sec) 
Heartbeat CPU 0 instructions: 89000002 cycles: 199315435 heartbeat IPC: 0.430046 cumulative IPC: 0.408121 (Simulation time: 2 hr 43 min 27 sec) 
Heartbeat CPU 0 instructions: 90000002 cycles: 201679257 heartbeat IPC: 0.423044 cumulative IPC: 0.408301 (Simulation time: 2 hr 44 min 22 sec) 
Heartbeat CPU 0 instructions: 91000003 cycles: 204095820 heartbeat IPC: 0.413811 cumulative IPC: 0.408368 (Simulation time: 2 hr 45 min 17 sec) 
Heartbeat CPU 0 instructions: 92000000 cycles: 206456163 heartbeat IPC: 0.423666 cumulative IPC: 0.408548 (Simulation time: 2 hr 46 min 9 sec) 
Heartbeat CPU 0 instructions: 93000001 cycles: 208803088 heartbeat IPC: 0.42609 cumulative IPC: 0.408751 (Simulation time: 2 hr 47 min 3 sec) 
Heartbeat CPU 0 instructions: 94000002 cycles: 211255550 heartbeat IPC: 0.407754 cumulative IPC: 0.408739 (Simulation time: 2 hr 47 min 54 sec) 
Heartbeat CPU 0 instructions: 95000000 cycles: 213616567 heartbeat IPC: 0.423545 cumulative IPC: 0.408907 (Simulation time: 2 hr 48 min 43 sec) 
Heartbeat CPU 0 instructions: 96000000 cycles: 215939858 heartbeat IPC: 0.430424 cumulative IPC: 0.409145 (Simulation time: 2 hr 49 min 32 sec) 
Heartbeat CPU 0 instructions: 97000000 cycles: 218326688 heartbeat IPC: 0.418966 cumulative IPC: 0.409255 (Simulation time: 2 hr 50 min 11 sec) 
Heartbeat CPU 0 instructions: 98000001 cycles: 220726701 heartbeat IPC: 0.416665 cumulative IPC: 0.409338 (Simulation time: 2 hr 50 min 52 sec) 
Heartbeat CPU 0 instructions: 99000002 cycles: 223085660 heartbeat IPC: 0.423916 cumulative IPC: 0.409496 (Simulation time: 2 hr 51 min 32 sec) 
Heartbeat CPU 0 instructions: 100000000 cycles: 225441770 heartbeat IPC: 0.424428 cumulative IPC: 0.409656 (Simulation time: 2 hr 52 min 7 sec) 
Heartbeat CPU 0 instructions: 101000000 cycles: 227857407 heartbeat IPC: 0.413969 cumulative IPC: 0.409703 (Simulation time: 2 hr 52 min 44 sec) 
Heartbeat CPU 0 instructions: 102000000 cycles: 230090726 heartbeat IPC: 0.447764 cumulative IPC: 0.410082 (Simulation time: 2 hr 53 min 18 sec) 
Heartbeat CPU 0 instructions: 103000001 cycles: 232595326 heartbeat IPC: 0.399266 cumulative IPC: 0.409963 (Simulation time: 2 hr 53 min 55 sec) 
Heartbeat CPU 0 instructions: 104000000 cycles: 235097846 heartbeat IPC: 0.399597 cumulative IPC: 0.40985 (Simulation time: 2 hr 54 min 27 sec) 
Heartbeat CPU 0 instructions: 105000000 cycles: 237597719 heartbeat IPC: 0.40002 cumulative IPC: 0.409744 (Simulation time: 2 hr 55 min 0 sec) 
Heartbeat CPU 0 instructions: 106000000 cycles: 240093924 heartbeat IPC: 0.400608 cumulative IPC: 0.409646 (Simulation time: 2 hr 55 min 30 sec) 
Heartbeat CPU 0 instructions: 107000001 cycles: 242584516 heartbeat IPC: 0.401511 cumulative IPC: 0.409561 (Simulation time: 2 hr 55 min 58 sec) 
Heartbeat CPU 0 instructions: 108000000 cycles: 245064922 heartbeat IPC: 0.403159 cumulative IPC: 0.409495 (Simulation time: 2 hr 56 min 20 sec) 
Heartbeat CPU 0 instructions: 109000002 cycles: 247521071 heartbeat IPC: 0.407142 cumulative IPC: 0.409471 (Simulation time: 2 hr 56 min 42 sec) 
Heartbeat CPU 0 instructions: 110000000 cycles: 249841273 heartbeat IPC: 0.430996 cumulative IPC: 0.409675 (Simulation time: 2 hr 57 min 3 sec) 
Finished CPU 0 instructions: 100000000 cycles: 244095810 cummulative IPC: 0.409675 (Simulation time: 2 hr 57 min 3 sec) 

ChampSim completed all CPUs

Region of Interest Statistics

CPU 0 cummulative IPC: 0.409675 instructions: 100000000 cycles: 244095810
LLC TOTAL     ACCESS:     156526  HIT:     120962  MISS:      35564
LLC LOAD      ACCESS:      70489  HIT:      56632  MISS:      13857
LLC RFO       ACCESS:      11261  HIT:       4777  MISS:       6484
LLC PREFETCH  ACCESS:      50049  HIT:      40825  MISS:       9224
LLC WRITEBACK ACCESS:      24727  HIT:      18728  MISS:       5999
