
*** ChampSim Multicore Out-of-Order Simulator ***

Warmup Instructions: 10000000
Simulation Instructions: 100000000
Configuration: 2
Number of CPUs: 1
LLC sets: 2048
LLC ways: 16
Off-chip DRAM Channels: 1 Width: 64-bit Data Rate: 1600 MT/s

CPU 0 runs /datasets/cs240c-wi22-a00-public/data/Assignment2-gz/soplex_66B.trace.gz
CPU 0 L1D next line prefetcher
CPU 0 L2C IP-based stride prefetcher
config 2, num_core 1, llc_sets 2048
Heartbeat CPU 0 instructions: 1000003 cycles: 415134 heartbeat IPC: 2.40887 cumulative IPC: 2.40887 (Simulation time: 0 hr 1 min 30 sec) 
Heartbeat CPU 0 instructions: 2000003 cycles: 837635 heartbeat IPC: 2.36686 cumulative IPC: 2.38768 (Simulation time: 0 hr 3 min 7 sec) 
Heartbeat CPU 0 instructions: 3000003 cycles: 1243204 heartbeat IPC: 2.46567 cumulative IPC: 2.41312 (Simulation time: 0 hr 4 min 39 sec) 
Heartbeat CPU 0 instructions: 4000000 cycles: 1627319 heartbeat IPC: 2.60338 cumulative IPC: 2.45803 (Simulation time: 0 hr 5 min 59 sec) 
Heartbeat CPU 0 instructions: 5000000 cycles: 2040723 heartbeat IPC: 2.41894 cumulative IPC: 2.45011 (Simulation time: 0 hr 7 min 21 sec) 
Heartbeat CPU 0 instructions: 6000000 cycles: 2512696 heartbeat IPC: 2.11877 cumulative IPC: 2.38787 (Simulation time: 0 hr 8 min 42 sec) 
Heartbeat CPU 0 instructions: 7000002 cycles: 2885348 heartbeat IPC: 2.68347 cumulative IPC: 2.42605 (Simulation time: 0 hr 10 min 0 sec) 
Heartbeat CPU 0 instructions: 8000000 cycles: 3311008 heartbeat IPC: 2.34929 cumulative IPC: 2.41618 (Simulation time: 0 hr 11 min 27 sec) 
Heartbeat CPU 0 instructions: 9000001 cycles: 3749614 heartbeat IPC: 2.27995 cumulative IPC: 2.40025 (Simulation time: 0 hr 12 min 40 sec) 
Heartbeat CPU 0 instructions: 10000002 cycles: 4161745 heartbeat IPC: 2.42642 cumulative IPC: 2.40284 (Simulation time: 0 hr 13 min 59 sec) 

Warmup complete CPU 0 instructions: 10000002 cycles: 4161745 (Simulation time: 0 hr 13 min 59 sec) 

Heartbeat CPU 0 instructions: 11000001 cycles: 7241499 heartbeat IPC: 0.324701 cumulative IPC: 0.324701 (Simulation time: 0 hr 15 min 44 sec) 
Heartbeat CPU 0 instructions: 12000000 cycles: 8586656 heartbeat IPC: 0.743407 cumulative IPC: 0.451986 (Simulation time: 0 hr 16 min 51 sec) 
Heartbeat CPU 0 instructions: 13000001 cycles: 11105548 heartbeat IPC: 0.397 cumulative IPC: 0.43204 (Simulation time: 0 hr 18 min 20 sec) 
Heartbeat CPU 0 instructions: 14000002 cycles: 13531340 heartbeat IPC: 0.412237 cumulative IPC: 0.426913 (Simulation time: 0 hr 19 min 51 sec) 
Heartbeat CPU 0 instructions: 15000002 cycles: 16124576 heartbeat IPC: 0.385619 cumulative IPC: 0.417961 (Simulation time: 0 hr 21 min 13 sec) 
Heartbeat CPU 0 instructions: 16000000 cycles: 18930120 heartbeat IPC: 0.356436 cumulative IPC: 0.406273 (Simulation time: 0 hr 22 min 51 sec) 
Heartbeat CPU 0 instructions: 17000001 cycles: 21044148 heartbeat IPC: 0.473031 cumulative IPC: 0.414633 (Simulation time: 0 hr 24 min 27 sec) 
Heartbeat CPU 0 instructions: 18000000 cycles: 23005243 heartbeat IPC: 0.509919 cumulative IPC: 0.42455 (Simulation time: 0 hr 25 min 59 sec) 
Heartbeat CPU 0 instructions: 19000002 cycles: 26332971 heartbeat IPC: 0.300506 cumulative IPC: 0.405932 (Simulation time: 0 hr 27 min 46 sec) 
Heartbeat CPU 0 instructions: 20000000 cycles: 27676891 heartbeat IPC: 0.74409 cumulative IPC: 0.425258 (Simulation time: 0 hr 28 min 50 sec) 
Heartbeat CPU 0 instructions: 21000000 cycles: 29842216 heartbeat IPC: 0.461824 cumulative IPC: 0.428341 (Simulation time: 0 hr 30 min 8 sec) 
Heartbeat CPU 0 instructions: 22000000 cycles: 32450410 heartbeat IPC: 0.383407 cumulative IPC: 0.424198 (Simulation time: 0 hr 31 min 41 sec) 
Heartbeat CPU 0 instructions: 23000000 cycles: 34972298 heartbeat IPC: 0.396528 cumulative IPC: 0.421933 (Simulation time: 0 hr 32 min 57 sec) 
Heartbeat CPU 0 instructions: 24000000 cycles: 37544005 heartbeat IPC: 0.388847 cumulative IPC: 0.419384 (Simulation time: 0 hr 34 min 19 sec) 
Heartbeat CPU 0 instructions: 25000003 cycles: 39694967 heartbeat IPC: 0.46491 cumulative IPC: 0.42214 (Simulation time: 0 hr 36 min 8 sec) 
Heartbeat CPU 0 instructions: 26000001 cycles: 41806557 heartbeat IPC: 0.473576 cumulative IPC: 0.425025 (Simulation time: 0 hr 37 min 38 sec) 
Heartbeat CPU 0 instructions: 27000002 cycles: 45144148 heartbeat IPC: 0.299618 cumulative IPC: 0.414812 (Simulation time: 0 hr 39 min 24 sec) 
Heartbeat CPU 0 instructions: 28000000 cycles: 46490244 heartbeat IPC: 0.742888 cumulative IPC: 0.425245 (Simulation time: 0 hr 40 min 32 sec) 
Heartbeat CPU 0 instructions: 29000002 cycles: 48290260 heartbeat IPC: 0.555552 cumulative IPC: 0.430561 (Simulation time: 0 hr 41 min 50 sec) 
Heartbeat CPU 0 instructions: 30000000 cycles: 51034466 heartbeat IPC: 0.364403 cumulative IPC: 0.426687 (Simulation time: 0 hr 43 min 31 sec) 
Heartbeat CPU 0 instructions: 31000001 cycles: 53586146 heartbeat IPC: 0.391899 cumulative IPC: 0.424891 (Simulation time: 0 hr 44 min 58 sec) 
Heartbeat CPU 0 instructions: 32000000 cycles: 56088418 heartbeat IPC: 0.399636 cumulative IPC: 0.423674 (Simulation time: 0 hr 46 min 16 sec) 
Heartbeat CPU 0 instructions: 33000001 cycles: 59205238 heartbeat IPC: 0.32084 cumulative IPC: 0.417851 (Simulation time: 0 hr 48 min 11 sec) 
Heartbeat CPU 0 instructions: 34000003 cycles: 61172261 heartbeat IPC: 0.508383 cumulative IPC: 0.420975 (Simulation time: 0 hr 49 min 47 sec) 
Heartbeat CPU 0 instructions: 35000003 cycles: 64076918 heartbeat IPC: 0.344275 cumulative IPC: 0.417257 (Simulation time: 0 hr 51 min 19 sec) 
Heartbeat CPU 0 instructions: 36000000 cycles: 65408521 heartbeat IPC: 0.750972 cumulative IPC: 0.424512 (Simulation time: 0 hr 52 min 25 sec) 
Heartbeat CPU 0 instructions: 37000000 cycles: 67926234 heartbeat IPC: 0.397186 cumulative IPC: 0.423433 (Simulation time: 0 hr 53 min 52 sec) 
Heartbeat CPU 0 instructions: 38000001 cycles: 70268780 heartbeat IPC: 0.426886 cumulative IPC: 0.423556 (Simulation time: 0 hr 55 min 14 sec) 
Heartbeat CPU 0 instructions: 39000003 cycles: 72841184 heartbeat IPC: 0.388742 cumulative IPC: 0.422252 (Simulation time: 0 hr 56 min 33 sec) 
Heartbeat CPU 0 instructions: 40000000 cycles: 75595689 heartbeat IPC: 0.363041 cumulative IPC: 0.419968 (Simulation time: 0 hr 58 min 3 sec) 
Heartbeat CPU 0 instructions: 41000001 cycles: 77642647 heartbeat IPC: 0.48853 cumulative IPC: 0.421878 (Simulation time: 0 hr 59 min 36 sec) 
Heartbeat CPU 0 instructions: 42000003 cycles: 79552596 heartbeat IPC: 0.523575 cumulative IPC: 0.424455 (Simulation time: 1 hr 1 min 5 sec) 
Heartbeat CPU 0 instructions: 43000000 cycles: 82900882 heartbeat IPC: 0.298659 cumulative IPC: 0.419105 (Simulation time: 1 hr 2 min 54 sec) 
Heartbeat CPU 0 instructions: 44000000 cycles: 84240648 heartbeat IPC: 0.746399 cumulative IPC: 0.424581 (Simulation time: 1 hr 4 min 2 sec) 
Heartbeat CPU 0 instructions: 45000003 cycles: 86393441 heartbeat IPC: 0.464514 cumulative IPC: 0.425627 (Simulation time: 1 hr 5 min 18 sec) 
Heartbeat CPU 0 instructions: 46000003 cycles: 88962318 heartbeat IPC: 0.389275 cumulative IPC: 0.424525 (Simulation time: 1 hr 6 min 49 sec) 
Heartbeat CPU 0 instructions: 47000001 cycles: 91452556 heartbeat IPC: 0.401567 cumulative IPC: 0.423871 (Simulation time: 1 hr 8 min 9 sec) 
Heartbeat CPU 0 instructions: 48000000 cycles: 93970229 heartbeat IPC: 0.397192 cumulative IPC: 0.423123 (Simulation time: 1 hr 9 min 33 sec) 
Heartbeat CPU 0 instructions: 49000000 cycles: 97306183 heartbeat IPC: 0.299764 cumulative IPC: 0.418705 (Simulation time: 1 hr 11 min 37 sec) 
Heartbeat CPU 0 instructions: 50000003 cycles: 103253159 heartbeat IPC: 0.168153 cumulative IPC: 0.403668 (Simulation time: 1 hr 13 min 49 sec) 
Heartbeat CPU 0 instructions: 51000002 cycles: 105669887 heartbeat IPC: 0.413782 cumulative IPC: 0.403908 (Simulation time: 1 hr 15 min 55 sec) 
Heartbeat CPU 0 instructions: 52000000 cycles: 109984355 heartbeat IPC: 0.231778 cumulative IPC: 0.396891 (Simulation time: 1 hr 17 min 58 sec) 
Heartbeat CPU 0 instructions: 53000003 cycles: 112839622 heartbeat IPC: 0.350231 cumulative IPC: 0.395665 (Simulation time: 1 hr 19 min 47 sec) 
Heartbeat CPU 0 instructions: 54000000 cycles: 115363881 heartbeat IPC: 0.396155 cumulative IPC: 0.395676 (Simulation time: 1 hr 21 min 38 sec) 
Heartbeat CPU 0 instructions: 55000002 cycles: 119026798 heartbeat IPC: 0.273007 cumulative IPC: 0.391764 (Simulation time: 1 hr 23 min 22 sec) 
Heartbeat CPU 0 instructions: 56000000 cycles: 122403742 heartbeat IPC: 0.296125 cumulative IPC: 0.389033 (Simulation time: 1 hr 25 min 15 sec) 
Heartbeat CPU 0 instructions: 57000003 cycles: 125003808 heartbeat IPC: 0.384607 cumulative IPC: 0.388937 (Simulation time: 1 hr 26 min 55 sec) 
Heartbeat CPU 0 instructions: 58000000 cycles: 127236544 heartbeat IPC: 0.44788 cumulative IPC: 0.390007 (Simulation time: 1 hr 28 min 38 sec) 
Heartbeat CPU 0 instructions: 59000002 cycles: 128756704 heartbeat IPC: 0.657827 cumulative IPC: 0.393274 (Simulation time: 1 hr 30 min 13 sec) 
Heartbeat CPU 0 instructions: 60000000 cycles: 129999136 heartbeat IPC: 0.804871 cumulative IPC: 0.397338 (Simulation time: 1 hr 31 min 28 sec) 
Heartbeat CPU 0 instructions: 61000002 cycles: 132878398 heartbeat IPC: 0.347312 cumulative IPC: 0.396219 (Simulation time: 1 hr 33 min 21 sec) 
Heartbeat CPU 0 instructions: 62000002 cycles: 135585616 heartbeat IPC: 0.369383 cumulative IPC: 0.395666 (Simulation time: 1 hr 35 min 17 sec) 
Heartbeat CPU 0 instructions: 63000002 cycles: 137694114 heartbeat IPC: 0.474271 cumulative IPC: 0.396908 (Simulation time: 1 hr 36 min 59 sec) 
Heartbeat CPU 0 instructions: 64000000 cycles: 140083532 heartbeat IPC: 0.418511 cumulative IPC: 0.397287 (Simulation time: 1 hr 38 min 33 sec) 
Heartbeat CPU 0 instructions: 65000000 cycles: 144365266 heartbeat IPC: 0.23355 cumulative IPC: 0.392287 (Simulation time: 1 hr 40 min 58 sec) 
Heartbeat CPU 0 instructions: 66000001 cycles: 145834526 heartbeat IPC: 0.680615 cumulative IPC: 0.395277 (Simulation time: 1 hr 42 min 14 sec) 
Heartbeat CPU 0 instructions: 67000000 cycles: 147271889 heartbeat IPC: 0.695718 cumulative IPC: 0.398295 (Simulation time: 1 hr 43 min 30 sec) 
Heartbeat CPU 0 instructions: 68000000 cycles: 150749474 heartbeat IPC: 0.287556 cumulative IPC: 0.395667 (Simulation time: 1 hr 45 min 28 sec) 
Heartbeat CPU 0 instructions: 69000000 cycles: 153273202 heartbeat IPC: 0.396239 cumulative IPC: 0.395677 (Simulation time: 1 hr 46 min 52 sec) 
Heartbeat CPU 0 instructions: 70000003 cycles: 155736257 heartbeat IPC: 0.406001 cumulative IPC: 0.395845 (Simulation time: 1 hr 48 min 12 sec) 
Heartbeat CPU 0 instructions: 71000000 cycles: 158214438 heartbeat IPC: 0.403521 cumulative IPC: 0.395968 (Simulation time: 1 hr 50 min 9 sec) 
Heartbeat CPU 0 instructions: 72000000 cycles: 160895567 heartbeat IPC: 0.372977 cumulative IPC: 0.395575 (Simulation time: 1 hr 51 min 54 sec) 
Heartbeat CPU 0 instructions: 73000002 cycles: 163998045 heartbeat IPC: 0.322324 cumulative IPC: 0.394153 (Simulation time: 1 hr 53 min 47 sec) 
Heartbeat CPU 0 instructions: 74000000 cycles: 166029674 heartbeat IPC: 0.492215 cumulative IPC: 0.395384 (Simulation time: 1 hr 55 min 5 sec) 
Heartbeat CPU 0 instructions: 75000002 cycles: 167404491 heartbeat IPC: 0.727371 cumulative IPC: 0.39818 (Simulation time: 1 hr 56 min 10 sec) 
Heartbeat CPU 0 instructions: 76000000 cycles: 170604990 heartbeat IPC: 0.312451 cumulative IPC: 0.396532 (Simulation time: 1 hr 57 min 52 sec) 
Heartbeat CPU 0 instructions: 77000000 cycles: 173028856 heartbeat IPC: 0.412564 cumulative IPC: 0.396762 (Simulation time: 1 hr 59 min 9 sec) 
Heartbeat CPU 0 instructions: 78000003 cycles: 175548355 heartbeat IPC: 0.396905 cumulative IPC: 0.396764 (Simulation time: 2 hr 0 min 24 sec) 
Heartbeat CPU 0 instructions: 79000001 cycles: 178608336 heartbeat IPC: 0.326799 cumulative IPC: 0.395537 (Simulation time: 2 hr 2 min 10 sec) 
Heartbeat CPU 0 instructions: 80000000 cycles: 181041443 heartbeat IPC: 0.410997 cumulative IPC: 0.395749 (Simulation time: 2 hr 3 min 45 sec) 
Heartbeat CPU 0 instructions: 81000003 cycles: 183907835 heartbeat IPC: 0.348872 cumulative IPC: 0.395002 (Simulation time: 2 hr 5 min 30 sec) 
Heartbeat CPU 0 instructions: 82000000 cycles: 185646082 heartbeat IPC: 0.575291 cumulative IPC: 0.396728 (Simulation time: 2 hr 6 min 42 sec) 
Heartbeat CPU 0 instructions: 83000001 cycles: 186969703 heartbeat IPC: 0.755504 cumulative IPC: 0.399326 (Simulation time: 2 hr 7 min 49 sec) 
Heartbeat CPU 0 instructions: 84000000 cycles: 190071894 heartbeat IPC: 0.322352 cumulative IPC: 0.398042 (Simulation time: 2 hr 9 min 37 sec) 
Heartbeat CPU 0 instructions: 85000000 cycles: 192462589 heartbeat IPC: 0.418288 cumulative IPC: 0.398299 (Simulation time: 2 hr 10 min 59 sec) 
Heartbeat CPU 0 instructions: 86000000 cycles: 195045593 heartbeat IPC: 0.387146 cumulative IPC: 0.398148 (Simulation time: 2 hr 12 min 18 sec) 
Heartbeat CPU 0 instructions: 87000000 cycles: 197870496 heartbeat IPC: 0.353994 cumulative IPC: 0.397504 (Simulation time: 2 hr 14 min 3 sec) 
Heartbeat CPU 0 instructions: 88000000 cycles: 200009030 heartbeat IPC: 0.46761 cumulative IPC: 0.398269 (Simulation time: 2 hr 15 min 32 sec) 
Heartbeat CPU 0 instructions: 89000001 cycles: 203269422 heartbeat IPC: 0.306712 cumulative IPC: 0.39677 (Simulation time: 2 hr 17 min 19 sec) 
Heartbeat CPU 0 instructions: 90000002 cycles: 204610839 heartbeat IPC: 0.745481 cumulative IPC: 0.399104 (Simulation time: 2 hr 18 min 26 sec) 
Heartbeat CPU 0 instructions: 91000000 cycles: 206011507 heartbeat IPC: 0.713944 cumulative IPC: 0.401289 (Simulation time: 2 hr 19 min 33 sec) 
Heartbeat CPU 0 instructions: 92000000 cycles: 209043168 heartbeat IPC: 0.329852 cumulative IPC: 0.400231 (Simulation time: 2 hr 21 min 16 sec) 
Heartbeat CPU 0 instructions: 93000000 cycles: 211605762 heartbeat IPC: 0.39023 cumulative IPC: 0.400108 (Simulation time: 2 hr 22 min 30 sec) 
Heartbeat CPU 0 instructions: 94000001 cycles: 214080148 heartbeat IPC: 0.404141 cumulative IPC: 0.400155 (Simulation time: 2 hr 23 min 49 sec) 
Heartbeat CPU 0 instructions: 95000003 cycles: 217099289 heartbeat IPC: 0.331221 cumulative IPC: 0.399178 (Simulation time: 2 hr 25 min 41 sec) 
Heartbeat CPU 0 instructions: 96000000 cycles: 218988346 heartbeat IPC: 0.529363 cumulative IPC: 0.400323 (Simulation time: 2 hr 27 min 13 sec) 
Heartbeat CPU 0 instructions: 97000003 cycles: 222087383 heartbeat IPC: 0.322682 cumulative IPC: 0.399219 (Simulation time: 2 hr 28 min 52 sec) 
Heartbeat CPU 0 instructions: 98000003 cycles: 223414557 heartbeat IPC: 0.753481 cumulative IPC: 0.401363 (Simulation time: 2 hr 29 min 49 sec) 
Heartbeat CPU 0 instructions: 99000000 cycles: 225736636 heartbeat IPC: 0.430647 cumulative IPC: 0.40167 (Simulation time: 2 hr 30 min 57 sec) 
Heartbeat CPU 0 instructions: 100000000 cycles: 228270335 heartbeat IPC: 0.39468 cumulative IPC: 0.401591 (Simulation time: 2 hr 32 min 15 sec) 
Heartbeat CPU 0 instructions: 101000001 cycles: 230776884 heartbeat IPC: 0.398955 cumulative IPC: 0.401562 (Simulation time: 2 hr 33 min 10 sec) 
Heartbeat CPU 0 instructions: 102000002 cycles: 233403040 heartbeat IPC: 0.380785 cumulative IPC: 0.401324 (Simulation time: 2 hr 34 min 9 sec) 
Heartbeat CPU 0 instructions: 103000002 cycles: 236318495 heartbeat IPC: 0.343 cumulative IPC: 0.400591 (Simulation time: 2 hr 35 min 21 sec) 
Heartbeat CPU 0 instructions: 104000000 cycles: 238474626 heartbeat IPC: 0.463793 cumulative IPC: 0.401173 (Simulation time: 2 hr 36 min 30 sec) 
Heartbeat CPU 0 instructions: 105000000 cycles: 240869018 heartbeat IPC: 0.417643 cumulative IPC: 0.40134 (Simulation time: 2 hr 37 min 25 sec) 
Heartbeat CPU 0 instructions: 106000001 cycles: 242192540 heartbeat IPC: 0.755561 cumulative IPC: 0.403309 (Simulation time: 2 hr 37 min 59 sec) 
Heartbeat CPU 0 instructions: 107000001 cycles: 245097355 heartbeat IPC: 0.344256 cumulative IPC: 0.402597 (Simulation time: 2 hr 38 min 53 sec) 
Heartbeat CPU 0 instructions: 108000000 cycles: 247274136 heartbeat IPC: 0.459393 cumulative IPC: 0.403106 (Simulation time: 2 hr 39 min 31 sec) 
Heartbeat CPU 0 instructions: 109000003 cycles: 249808861 heartbeat IPC: 0.394521 cumulative IPC: 0.403017 (Simulation time: 2 hr 40 min 15 sec) 
Heartbeat CPU 0 instructions: 110000001 cycles: 252679277 heartbeat IPC: 0.348381 cumulative IPC: 0.402386 (Simulation time: 2 hr 41 min 12 sec) 
Finished CPU 0 instructions: 100000003 cycles: 248517533 cummulative IPC: 0.402386 (Simulation time: 2 hr 41 min 12 sec) 

ChampSim completed all CPUs

Region of Interest Statistics

CPU 0 cummulative IPC: 0.402386 instructions: 100000003 cycles: 248517533
LLC TOTAL     ACCESS:    6603268  HIT:    2891296  MISS:    3711972
LLC LOAD      ACCESS:    1699046  HIT:     758933  MISS:     940113
LLC RFO       ACCESS:     658493  HIT:     292723  MISS:     365770
LLC PREFETCH  ACCESS:    2685066  HIT:     913921  MISS:    1771145
LLC WRITEBACK ACCESS:    1560663  HIT:     925719  MISS:     634944
