
*** ChampSim Multicore Out-of-Order Simulator ***

Warmup Instructions: 10000000
Simulation Instructions: 100000000
Configuration: 2
Number of CPUs: 1
LLC sets: 2048
LLC ways: 16
Off-chip DRAM Channels: 1 Width: 64-bit Data Rate: 1600 MT/s

CPU 0 runs /datasets/cs240c-wi22-a00-public/data/Assignment2-gz/sphinx3_1339B.trace.gz
CPU 0 L1D next line prefetcher
CPU 0 L2C IP-based stride prefetcher
config 2, num_core 1, llc_sets 2048
Heartbeat CPU 0 instructions: 1000000 cycles: 339022 heartbeat IPC: 2.94966 cumulative IPC: 2.94966 (Simulation time: 0 hr 1 min 35 sec) 
Heartbeat CPU 0 instructions: 2000001 cycles: 693439 heartbeat IPC: 2.82154 cumulative IPC: 2.88418 (Simulation time: 0 hr 3 min 16 sec) 
Heartbeat CPU 0 instructions: 3000000 cycles: 1084608 heartbeat IPC: 2.55644 cumulative IPC: 2.76598 (Simulation time: 0 hr 4 min 54 sec) 
Heartbeat CPU 0 instructions: 4000000 cycles: 1530007 heartbeat IPC: 2.24518 cumulative IPC: 2.61437 (Simulation time: 0 hr 6 min 27 sec) 
Heartbeat CPU 0 instructions: 5000003 cycles: 1869028 heartbeat IPC: 2.94968 cumulative IPC: 2.67519 (Simulation time: 0 hr 8 min 8 sec) 
Heartbeat CPU 0 instructions: 6000002 cycles: 2253236 heartbeat IPC: 2.60275 cumulative IPC: 2.66284 (Simulation time: 0 hr 9 min 48 sec) 
Heartbeat CPU 0 instructions: 7000001 cycles: 2717072 heartbeat IPC: 2.15593 cumulative IPC: 2.5763 (Simulation time: 0 hr 11 min 22 sec) 
Heartbeat CPU 0 instructions: 8000000 cycles: 3055945 heartbeat IPC: 2.95096 cumulative IPC: 2.61785 (Simulation time: 0 hr 12 min 53 sec) 
Heartbeat CPU 0 instructions: 9000003 cycles: 3412615 heartbeat IPC: 2.80372 cumulative IPC: 2.63727 (Simulation time: 0 hr 14 min 34 sec) 
Heartbeat CPU 0 instructions: 10000001 cycles: 3799514 heartbeat IPC: 2.58465 cumulative IPC: 2.63192 (Simulation time: 0 hr 16 min 10 sec) 

Warmup complete CPU 0 instructions: 10000001 cycles: 3799514 (Simulation time: 0 hr 16 min 10 sec) 

Heartbeat CPU 0 instructions: 11000000 cycles: 4637190 heartbeat IPC: 1.19378 cumulative IPC: 1.19378 (Simulation time: 0 hr 17 min 54 sec) 
Heartbeat CPU 0 instructions: 12000000 cycles: 5266890 heartbeat IPC: 1.58806 cumulative IPC: 1.36298 (Simulation time: 0 hr 19 min 40 sec) 
Heartbeat CPU 0 instructions: 13000000 cycles: 6629292 heartbeat IPC: 0.733998 cumulative IPC: 1.06015 (Simulation time: 0 hr 21 min 36 sec) 
Heartbeat CPU 0 instructions: 14000000 cycles: 7526517 heartbeat IPC: 1.11455 cumulative IPC: 1.07325 (Simulation time: 0 hr 23 min 30 sec) 
Heartbeat CPU 0 instructions: 15000002 cycles: 8189785 heartbeat IPC: 1.50769 cumulative IPC: 1.13888 (Simulation time: 0 hr 25 min 12 sec) 
Heartbeat CPU 0 instructions: 16000000 cycles: 9176767 heartbeat IPC: 1.01319 cumulative IPC: 1.11581 (Simulation time: 0 hr 27 min 18 sec) 
Heartbeat CPU 0 instructions: 17000001 cycles: 10541581 heartbeat IPC: 0.732701 cumulative IPC: 1.03826 (Simulation time: 0 hr 29 min 25 sec) 
Heartbeat CPU 0 instructions: 18000003 cycles: 11614198 heartbeat IPC: 0.932301 cumulative IPC: 1.02371 (Simulation time: 0 hr 31 min 2 sec) 
Heartbeat CPU 0 instructions: 19000002 cycles: 12428022 heartbeat IPC: 1.22877 cumulative IPC: 1.04305 (Simulation time: 0 hr 32 min 38 sec) 
Heartbeat CPU 0 instructions: 20000000 cycles: 13080866 heartbeat IPC: 1.53176 cumulative IPC: 1.07743 (Simulation time: 0 hr 34 min 4 sec) 
Heartbeat CPU 0 instructions: 21000000 cycles: 14245730 heartbeat IPC: 0.858469 cumulative IPC: 1.05301 (Simulation time: 0 hr 35 min 46 sec) 
Heartbeat CPU 0 instructions: 22000000 cycles: 15256009 heartbeat IPC: 0.989826 cumulative IPC: 1.04744 (Simulation time: 0 hr 37 min 33 sec) 
Heartbeat CPU 0 instructions: 23000003 cycles: 15974025 heartbeat IPC: 1.39273 cumulative IPC: 1.0678 (Simulation time: 0 hr 39 min 15 sec) 
Heartbeat CPU 0 instructions: 24000000 cycles: 16792799 heartbeat IPC: 1.22133 cumulative IPC: 1.07748 (Simulation time: 0 hr 40 min 48 sec) 
Heartbeat CPU 0 instructions: 25000001 cycles: 17760121 heartbeat IPC: 1.03378 cumulative IPC: 1.07445 (Simulation time: 0 hr 42 min 36 sec) 
Heartbeat CPU 0 instructions: 26000003 cycles: 18489597 heartbeat IPC: 1.37085 cumulative IPC: 1.08917 (Simulation time: 0 hr 44 min 13 sec) 
Heartbeat CPU 0 instructions: 27000002 cycles: 19162481 heartbeat IPC: 1.48614 cumulative IPC: 1.10656 (Simulation time: 0 hr 45 min 54 sec) 
Heartbeat CPU 0 instructions: 28000000 cycles: 20136750 heartbeat IPC: 1.02641 cumulative IPC: 1.10178 (Simulation time: 0 hr 47 min 38 sec) 
Heartbeat CPU 0 instructions: 29000003 cycles: 20892706 heartbeat IPC: 1.32283 cumulative IPC: 1.11155 (Simulation time: 0 hr 49 min 10 sec) 
Heartbeat CPU 0 instructions: 30000003 cycles: 21521316 heartbeat IPC: 1.59081 cumulative IPC: 1.12855 (Simulation time: 0 hr 50 min 35 sec) 
Heartbeat CPU 0 instructions: 31000002 cycles: 22446982 heartbeat IPC: 1.0803 cumulative IPC: 1.12616 (Simulation time: 0 hr 51 min 56 sec) 
Heartbeat CPU 0 instructions: 32000000 cycles: 23259127 heartbeat IPC: 1.2313 cumulative IPC: 1.13055 (Simulation time: 0 hr 53 min 14 sec) 
Heartbeat CPU 0 instructions: 33000001 cycles: 23901832 heartbeat IPC: 1.55593 cumulative IPC: 1.14415 (Simulation time: 0 hr 54 min 35 sec) 
Heartbeat CPU 0 instructions: 34000001 cycles: 25296614 heartbeat IPC: 0.716958 cumulative IPC: 1.11643 (Simulation time: 0 hr 56 min 2 sec) 
Heartbeat CPU 0 instructions: 35000002 cycles: 26217090 heartbeat IPC: 1.0864 cumulative IPC: 1.1152 (Simulation time: 0 hr 57 min 25 sec) 
Heartbeat CPU 0 instructions: 36000000 cycles: 26955298 heartbeat IPC: 1.35463 cumulative IPC: 1.12283 (Simulation time: 0 hr 58 min 43 sec) 
Heartbeat CPU 0 instructions: 37000003 cycles: 27860539 heartbeat IPC: 1.10468 cumulative IPC: 1.12215 (Simulation time: 1 hr 0 min 7 sec) 
Heartbeat CPU 0 instructions: 38000000 cycles: 29036495 heartbeat IPC: 0.850369 cumulative IPC: 1.10948 (Simulation time: 1 hr 1 min 34 sec) 
Heartbeat CPU 0 instructions: 39000000 cycles: 29864942 heartbeat IPC: 1.20708 cumulative IPC: 1.11258 (Simulation time: 1 hr 2 min 53 sec) 
Heartbeat CPU 0 instructions: 40000000 cycles: 30544688 heartbeat IPC: 1.47114 cumulative IPC: 1.1217 (Simulation time: 1 hr 4 min 11 sec) 
Heartbeat CPU 0 instructions: 41000000 cycles: 31769070 heartbeat IPC: 0.816739 cumulative IPC: 1.10835 (Simulation time: 1 hr 5 min 32 sec) 
Heartbeat CPU 0 instructions: 42000002 cycles: 32645957 heartbeat IPC: 1.1404 cumulative IPC: 1.10932 (Simulation time: 1 hr 6 min 50 sec) 
Heartbeat CPU 0 instructions: 43000001 cycles: 33382157 heartbeat IPC: 1.35833 cumulative IPC: 1.11552 (Simulation time: 1 hr 8 min 8 sec) 
Heartbeat CPU 0 instructions: 44000000 cycles: 34366500 heartbeat IPC: 1.01591 cumulative IPC: 1.11231 (Simulation time: 1 hr 9 min 31 sec) 
Heartbeat CPU 0 instructions: 45000002 cycles: 35389417 heartbeat IPC: 0.977598 cumulative IPC: 1.10795 (Simulation time: 1 hr 10 min 53 sec) 
Heartbeat CPU 0 instructions: 46000003 cycles: 36153425 heartbeat IPC: 1.30889 cumulative IPC: 1.11269 (Simulation time: 1 hr 12 min 26 sec) 
Heartbeat CPU 0 instructions: 47000001 cycles: 36861338 heartbeat IPC: 1.4126 cumulative IPC: 1.11912 (Simulation time: 1 hr 13 min 48 sec) 
Heartbeat CPU 0 instructions: 48000000 cycles: 37861163 heartbeat IPC: 1.00017 cumulative IPC: 1.11562 (Simulation time: 1 hr 15 min 13 sec) 
Heartbeat CPU 0 instructions: 49000000 cycles: 38663509 heartbeat IPC: 1.24635 cumulative IPC: 1.11863 (Simulation time: 1 hr 16 min 33 sec) 
Heartbeat CPU 0 instructions: 50000003 cycles: 39345858 heartbeat IPC: 1.46553 cumulative IPC: 1.12529 (Simulation time: 1 hr 17 min 52 sec) 
Heartbeat CPU 0 instructions: 51000001 cycles: 40539624 heartbeat IPC: 0.837683 cumulative IPC: 1.11595 (Simulation time: 1 hr 19 min 32 sec) 
Heartbeat CPU 0 instructions: 52000000 cycles: 41368070 heartbeat IPC: 1.20708 cumulative IPC: 1.11796 (Simulation time: 1 hr 21 min 8 sec) 
Heartbeat CPU 0 instructions: 53000002 cycles: 42090302 heartbeat IPC: 1.3846 cumulative IPC: 1.12299 (Simulation time: 1 hr 22 min 39 sec) 
Heartbeat CPU 0 instructions: 54000003 cycles: 43182750 heartbeat IPC: 0.915376 cumulative IPC: 1.11723 (Simulation time: 1 hr 24 min 16 sec) 
Heartbeat CPU 0 instructions: 55000001 cycles: 44097105 heartbeat IPC: 1.09366 cumulative IPC: 1.11669 (Simulation time: 1 hr 25 min 40 sec) 
Heartbeat CPU 0 instructions: 56000000 cycles: 44854325 heartbeat IPC: 1.32062 cumulative IPC: 1.12045 (Simulation time: 1 hr 27 min 11 sec) 
Heartbeat CPU 0 instructions: 57000000 cycles: 45718316 heartbeat IPC: 1.15742 cumulative IPC: 1.12122 (Simulation time: 1 hr 28 min 43 sec) 
Heartbeat CPU 0 instructions: 58000000 cycles: 46808334 heartbeat IPC: 0.917416 cumulative IPC: 1.11605 (Simulation time: 1 hr 30 min 15 sec) 
Heartbeat CPU 0 instructions: 59000002 cycles: 47594377 heartbeat IPC: 1.2722 cumulative IPC: 1.11885 (Simulation time: 1 hr 31 min 46 sec) 
Heartbeat CPU 0 instructions: 60000000 cycles: 48308118 heartbeat IPC: 1.40107 cumulative IPC: 1.12338 (Simulation time: 1 hr 33 min 16 sec) 
Heartbeat CPU 0 instructions: 61000000 cycles: 49625596 heartbeat IPC: 0.759026 cumulative IPC: 1.1129 (Simulation time: 1 hr 34 min 52 sec) 
Heartbeat CPU 0 instructions: 62000002 cycles: 50766613 heartbeat IPC: 0.876413 cumulative IPC: 1.10716 (Simulation time: 1 hr 36 min 31 sec) 
Heartbeat CPU 0 instructions: 63000001 cycles: 51599090 heartbeat IPC: 1.20123 cumulative IPC: 1.1088 (Simulation time: 1 hr 38 min 4 sec) 
Heartbeat CPU 0 instructions: 64000000 cycles: 52349717 heartbeat IPC: 1.33222 cumulative IPC: 1.11225 (Simulation time: 1 hr 39 min 30 sec) 
Heartbeat CPU 0 instructions: 65000000 cycles: 53346779 heartbeat IPC: 1.00295 cumulative IPC: 1.11005 (Simulation time: 1 hr 41 min 8 sec) 
Heartbeat CPU 0 instructions: 66000001 cycles: 54332220 heartbeat IPC: 1.01478 cumulative IPC: 1.10819 (Simulation time: 1 hr 42 min 38 sec) 
Heartbeat CPU 0 instructions: 67000000 cycles: 55108302 heartbeat IPC: 1.28852 cumulative IPC: 1.11092 (Simulation time: 1 hr 44 min 4 sec) 
Heartbeat CPU 0 instructions: 68000000 cycles: 55890839 heartbeat IPC: 1.27789 cumulative IPC: 1.11343 (Simulation time: 1 hr 45 min 35 sec) 
Heartbeat CPU 0 instructions: 69000003 cycles: 57028274 heartbeat IPC: 0.879174 cumulative IPC: 1.10842 (Simulation time: 1 hr 47 min 6 sec) 
Heartbeat CPU 0 instructions: 70000001 cycles: 57859320 heartbeat IPC: 1.2033 cumulative IPC: 1.10988 (Simulation time: 1 hr 48 min 35 sec) 
Heartbeat CPU 0 instructions: 71000001 cycles: 58578236 heartbeat IPC: 1.39098 cumulative IPC: 1.11357 (Simulation time: 1 hr 50 min 0 sec) 
Heartbeat CPU 0 instructions: 72000000 cycles: 59778670 heartbeat IPC: 0.833031 cumulative IPC: 1.10756 (Simulation time: 1 hr 51 min 34 sec) 
Heartbeat CPU 0 instructions: 73000001 cycles: 60615405 heartbeat IPC: 1.19512 cumulative IPC: 1.10884 (Simulation time: 1 hr 52 min 57 sec) 
Heartbeat CPU 0 instructions: 74000000 cycles: 61370180 heartbeat IPC: 1.3249 cumulative IPC: 1.11168 (Simulation time: 1 hr 54 min 21 sec) 
Heartbeat CPU 0 instructions: 75000003 cycles: 62402248 heartbeat IPC: 0.968931 cumulative IPC: 1.10916 (Simulation time: 1 hr 55 min 44 sec) 
Heartbeat CPU 0 instructions: 76000000 cycles: 63345896 heartbeat IPC: 1.05971 cumulative IPC: 1.10838 (Simulation time: 1 hr 57 min 6 sec) 
Heartbeat CPU 0 instructions: 77000002 cycles: 64124020 heartbeat IPC: 1.28514 cumulative IPC: 1.11066 (Simulation time: 1 hr 58 min 25 sec) 
Heartbeat CPU 0 instructions: 78000002 cycles: 64950253 heartbeat IPC: 1.21031 cumulative IPC: 1.11201 (Simulation time: 1 hr 59 min 46 sec) 
Heartbeat CPU 0 instructions: 79000001 cycles: 66037383 heartbeat IPC: 0.919852 cumulative IPC: 1.10865 (Simulation time: 2 hr 1 min 7 sec) 
Heartbeat CPU 0 instructions: 80000000 cycles: 66863210 heartbeat IPC: 1.21091 cumulative IPC: 1.10999 (Simulation time: 2 hr 2 min 26 sec) 
Heartbeat CPU 0 instructions: 81000003 cycles: 67580824 heartbeat IPC: 1.39351 cumulative IPC: 1.11318 (Simulation time: 2 hr 3 min 46 sec) 
Heartbeat CPU 0 instructions: 82000000 cycles: 68750184 heartbeat IPC: 0.855166 cumulative IPC: 1.10853 (Simulation time: 2 hr 5 min 8 sec) 
Heartbeat CPU 0 instructions: 83000001 cycles: 69585619 heartbeat IPC: 1.19698 cumulative IPC: 1.10966 (Simulation time: 2 hr 6 min 27 sec) 
Heartbeat CPU 0 instructions: 84000000 cycles: 70324676 heartbeat IPC: 1.35307 cumulative IPC: 1.11236 (Simulation time: 2 hr 7 min 45 sec) 
Heartbeat CPU 0 instructions: 85000002 cycles: 71418963 heartbeat IPC: 0.913839 cumulative IPC: 1.10915 (Simulation time: 2 hr 9 min 9 sec) 
Heartbeat CPU 0 instructions: 86000003 cycles: 72310593 heartbeat IPC: 1.12154 cumulative IPC: 1.10931 (Simulation time: 2 hr 10 min 28 sec) 
Heartbeat CPU 0 instructions: 87000003 cycles: 73077324 heartbeat IPC: 1.30424 cumulative IPC: 1.11147 (Simulation time: 2 hr 11 min 46 sec) 
Heartbeat CPU 0 instructions: 88000000 cycles: 74013699 heartbeat IPC: 1.06795 cumulative IPC: 1.11089 (Simulation time: 2 hr 13 min 11 sec) 
Heartbeat CPU 0 instructions: 89000000 cycles: 75038173 heartbeat IPC: 0.976111 cumulative IPC: 1.10895 (Simulation time: 2 hr 14 min 35 sec) 
Heartbeat CPU 0 instructions: 90000003 cycles: 75817471 heartbeat IPC: 1.28321 cumulative IPC: 1.11083 (Simulation time: 2 hr 15 min 50 sec) 
Heartbeat CPU 0 instructions: 91000000 cycles: 76545945 heartbeat IPC: 1.37273 cumulative IPC: 1.11346 (Simulation time: 2 hr 17 min 10 sec) 
Heartbeat CPU 0 instructions: 92000000 cycles: 77728588 heartbeat IPC: 0.845564 cumulative IPC: 1.10917 (Simulation time: 2 hr 18 min 29 sec) 
Heartbeat CPU 0 instructions: 93000001 cycles: 78550989 heartbeat IPC: 1.21595 cumulative IPC: 1.11035 (Simulation time: 2 hr 19 min 45 sec) 
Heartbeat CPU 0 instructions: 94000001 cycles: 79280102 heartbeat IPC: 1.37153 cumulative IPC: 1.11287 (Simulation time: 2 hr 21 min 3 sec) 
Heartbeat CPU 0 instructions: 95000002 cycles: 80467760 heartbeat IPC: 0.841994 cumulative IPC: 1.10867 (Simulation time: 2 hr 22 min 20 sec) 
Heartbeat CPU 0 instructions: 96000000 cycles: 81319613 heartbeat IPC: 1.17391 cumulative IPC: 1.10939 (Simulation time: 2 hr 23 min 41 sec) 
Heartbeat CPU 0 instructions: 97000002 cycles: 82077723 heartbeat IPC: 1.31907 cumulative IPC: 1.11142 (Simulation time: 2 hr 24 min 54 sec) 
Heartbeat CPU 0 instructions: 98000000 cycles: 83096523 heartbeat IPC: 0.981545 cumulative IPC: 1.10975 (Simulation time: 2 hr 26 min 19 sec) 
Heartbeat CPU 0 instructions: 99000003 cycles: 84197401 heartbeat IPC: 0.908369 cumulative IPC: 1.10699 (Simulation time: 2 hr 27 min 33 sec) 
Heartbeat CPU 0 instructions: 100000000 cycles: 85002600 heartbeat IPC: 1.24193 cumulative IPC: 1.10833 (Simulation time: 2 hr 28 min 39 sec) 
Heartbeat CPU 0 instructions: 101000000 cycles: 85743307 heartbeat IPC: 1.35006 cumulative IPC: 1.11052 (Simulation time: 2 hr 29 min 47 sec) 
Heartbeat CPU 0 instructions: 102000001 cycles: 87198596 heartbeat IPC: 0.687149 cumulative IPC: 1.10313 (Simulation time: 2 hr 31 min 1 sec) 
Heartbeat CPU 0 instructions: 103000000 cycles: 88449762 heartbeat IPC: 0.799254 cumulative IPC: 1.09864 (Simulation time: 2 hr 32 min 22 sec) 
Heartbeat CPU 0 instructions: 104000000 cycles: 89397490 heartbeat IPC: 1.05516 cumulative IPC: 1.09816 (Simulation time: 2 hr 33 min 24 sec) 
Heartbeat CPU 0 instructions: 105000003 cycles: 90194703 heartbeat IPC: 1.25437 cumulative IPC: 1.0996 (Simulation time: 2 hr 34 min 24 sec) 
Heartbeat CPU 0 instructions: 106000000 cycles: 90978195 heartbeat IPC: 1.27633 cumulative IPC: 1.10119 (Simulation time: 2 hr 35 min 22 sec) 
Heartbeat CPU 0 instructions: 107000001 cycles: 92425173 heartbeat IPC: 0.691096 cumulative IPC: 1.09449 (Simulation time: 2 hr 36 min 23 sec) 
Heartbeat CPU 0 instructions: 108000000 cycles: 93335007 heartbeat IPC: 1.0991 cumulative IPC: 1.09454 (Simulation time: 2 hr 37 min 26 sec) 
Heartbeat CPU 0 instructions: 109000000 cycles: 94125401 heartbeat IPC: 1.26519 cumulative IPC: 1.09603 (Simulation time: 2 hr 38 min 27 sec) 
Heartbeat CPU 0 instructions: 110000000 cycles: 95188628 heartbeat IPC: 0.940533 cumulative IPC: 1.09422 (Simulation time: 2 hr 39 min 28 sec) 
Finished CPU 0 instructions: 100000000 cycles: 91389116 cummulative IPC: 1.09422 (Simulation time: 2 hr 39 min 28 sec) 

ChampSim completed all CPUs

Region of Interest Statistics

CPU 0 cummulative IPC: 1.09422 instructions: 100000000 cycles: 91389116
LLC TOTAL     ACCESS:    1574110  HIT:     866516  MISS:     707594
LLC LOAD      ACCESS:     202313  HIT:     174312  MISS:      28001
LLC RFO       ACCESS:     111356  HIT:     106725  MISS:       4631
LLC PREFETCH  ACCESS:    1127282  HIT:     453352  MISS:     673930
LLC WRITEBACK ACCESS:     133159  HIT:     132127  MISS:       1032
