
*** ChampSim Multicore Out-of-Order Simulator ***

Warmup Instructions: 10000000
Simulation Instructions: 100000000
Configuration: 2
Number of CPUs: 1
LLC sets: 2048
LLC ways: 16
Off-chip DRAM Channels: 1 Width: 64-bit Data Rate: 1600 MT/s

CPU 0 runs /datasets/cs240c-wi22-a00-public/data/Assignment2-gz/gcc_13B.trace.gz
CPU 0 L1D next line prefetcher
CPU 0 L2C IP-based stride prefetcher
config 2, num_core 1, llc_sets 2048
Heartbeat CPU 0 instructions: 1000000 cycles: 633332 heartbeat IPC: 1.57895 cumulative IPC: 1.57895 (Simulation time: 0 hr 1 min 41 sec) 
Heartbeat CPU 0 instructions: 2000001 cycles: 1243781 heartbeat IPC: 1.63814 cumulative IPC: 1.608 (Simulation time: 0 hr 3 min 20 sec) 
Heartbeat CPU 0 instructions: 3000001 cycles: 1717722 heartbeat IPC: 2.10997 cumulative IPC: 1.7465 (Simulation time: 0 hr 4 min 56 sec) 
Heartbeat CPU 0 instructions: 4000000 cycles: 2191343 heartbeat IPC: 2.11139 cumulative IPC: 1.82536 (Simulation time: 0 hr 6 min 29 sec) 
Heartbeat CPU 0 instructions: 5000002 cycles: 2665460 heartbeat IPC: 2.10919 cumulative IPC: 1.87585 (Simulation time: 0 hr 8 min 5 sec) 
Heartbeat CPU 0 instructions: 6000002 cycles: 3139319 heartbeat IPC: 2.11033 cumulative IPC: 1.91124 (Simulation time: 0 hr 9 min 41 sec) 
Heartbeat CPU 0 instructions: 7000001 cycles: 3614638 heartbeat IPC: 2.10385 cumulative IPC: 1.93657 (Simulation time: 0 hr 11 min 18 sec) 
Heartbeat CPU 0 instructions: 8000000 cycles: 4091760 heartbeat IPC: 2.0959 cumulative IPC: 1.95515 (Simulation time: 0 hr 12 min 52 sec) 
Heartbeat CPU 0 instructions: 9000001 cycles: 4832954 heartbeat IPC: 1.34918 cumulative IPC: 1.86222 (Simulation time: 0 hr 14 min 30 sec) 
Heartbeat CPU 0 instructions: 10000001 cycles: 5536995 heartbeat IPC: 1.42037 cumulative IPC: 1.80603 (Simulation time: 0 hr 16 min 11 sec) 

Warmup complete CPU 0 instructions: 10000001 cycles: 5536995 (Simulation time: 0 hr 16 min 11 sec) 

Heartbeat CPU 0 instructions: 11000000 cycles: 12466382 heartbeat IPC: 0.144313 cumulative IPC: 0.144313 (Simulation time: 0 hr 18 min 45 sec) 
Heartbeat CPU 0 instructions: 12000000 cycles: 18847272 heartbeat IPC: 0.156718 cumulative IPC: 0.15026 (Simulation time: 0 hr 21 min 9 sec) 
Heartbeat CPU 0 instructions: 13000000 cycles: 24829333 heartbeat IPC: 0.167166 cumulative IPC: 0.155502 (Simulation time: 0 hr 23 min 28 sec) 
Heartbeat CPU 0 instructions: 14000000 cycles: 30278816 heartbeat IPC: 0.183504 cumulative IPC: 0.16167 (Simulation time: 0 hr 25 min 43 sec) 
Heartbeat CPU 0 instructions: 15000000 cycles: 32850458 heartbeat IPC: 0.388857 cumulative IPC: 0.18306 (Simulation time: 0 hr 27 min 47 sec) 
Heartbeat CPU 0 instructions: 16000000 cycles: 35022973 heartbeat IPC: 0.460296 cumulative IPC: 0.203487 (Simulation time: 0 hr 29 min 33 sec) 
Heartbeat CPU 0 instructions: 17000000 cycles: 37231405 heartbeat IPC: 0.45281 cumulative IPC: 0.220859 (Simulation time: 0 hr 31 min 15 sec) 
Heartbeat CPU 0 instructions: 18000000 cycles: 39443222 heartbeat IPC: 0.452117 cumulative IPC: 0.235945 (Simulation time: 0 hr 32 min 55 sec) 
Heartbeat CPU 0 instructions: 19000002 cycles: 41670721 heartbeat IPC: 0.448935 cumulative IPC: 0.249075 (Simulation time: 0 hr 34 min 44 sec) 
Heartbeat CPU 0 instructions: 20000000 cycles: 43909153 heartbeat IPC: 0.44674 cumulative IPC: 0.260606 (Simulation time: 0 hr 36 min 31 sec) 
Heartbeat CPU 0 instructions: 21000001 cycles: 46331582 heartbeat IPC: 0.412809 cumulative IPC: 0.269644 (Simulation time: 0 hr 38 min 17 sec) 
Heartbeat CPU 0 instructions: 22000001 cycles: 50359231 heartbeat IPC: 0.248284 cumulative IPC: 0.267724 (Simulation time: 0 hr 40 min 39 sec) 
Heartbeat CPU 0 instructions: 23000002 cycles: 57261812 heartbeat IPC: 0.144873 cumulative IPC: 0.25133 (Simulation time: 0 hr 43 min 12 sec) 
Heartbeat CPU 0 instructions: 24000000 cycles: 63967674 heartbeat IPC: 0.149123 cumulative IPC: 0.2396 (Simulation time: 0 hr 45 min 35 sec) 
Heartbeat CPU 0 instructions: 25000000 cycles: 70127756 heartbeat IPC: 0.162336 cumulative IPC: 0.232231 (Simulation time: 0 hr 47 min 56 sec) 
Heartbeat CPU 0 instructions: 26000001 cycles: 75855250 heartbeat IPC: 0.174597 cumulative IPC: 0.227537 (Simulation time: 0 hr 50 min 13 sec) 
Heartbeat CPU 0 instructions: 27000000 cycles: 81096906 heartbeat IPC: 0.190779 cumulative IPC: 0.224987 (Simulation time: 0 hr 52 min 27 sec) 
Heartbeat CPU 0 instructions: 28000000 cycles: 83456157 heartbeat IPC: 0.423863 cumulative IPC: 0.231009 (Simulation time: 0 hr 54 min 32 sec) 
Heartbeat CPU 0 instructions: 29000000 cycles: 85491029 heartbeat IPC: 0.491431 cumulative IPC: 0.237637 (Simulation time: 0 hr 56 min 18 sec) 
Heartbeat CPU 0 instructions: 30000001 cycles: 87531587 heartbeat IPC: 0.490063 cumulative IPC: 0.243919 (Simulation time: 0 hr 58 min 0 sec) 
Heartbeat CPU 0 instructions: 31000000 cycles: 89599549 heartbeat IPC: 0.483567 cumulative IPC: 0.249814 (Simulation time: 0 hr 59 min 45 sec) 
Heartbeat CPU 0 instructions: 32000000 cycles: 91684964 heartbeat IPC: 0.479521 cumulative IPC: 0.255375 (Simulation time: 1 hr 1 min 31 sec) 
Heartbeat CPU 0 instructions: 33000000 cycles: 93814076 heartbeat IPC: 0.469679 cumulative IPC: 0.260543 (Simulation time: 1 hr 3 min 18 sec) 
Heartbeat CPU 0 instructions: 34000000 cycles: 96500182 heartbeat IPC: 0.372286 cumulative IPC: 0.263843 (Simulation time: 1 hr 5 min 6 sec) 
Heartbeat CPU 0 instructions: 35000000 cycles: 110267891 heartbeat IPC: 0.0726337 cumulative IPC: 0.238707 (Simulation time: 1 hr 9 min 40 sec) 
Heartbeat CPU 0 instructions: 36000000 cycles: 114066123 heartbeat IPC: 0.26328 cumulative IPC: 0.239567 (Simulation time: 1 hr 11 min 25 sec) 
Heartbeat CPU 0 instructions: 37000003 cycles: 117848517 heartbeat IPC: 0.264384 cumulative IPC: 0.240403 (Simulation time: 1 hr 13 min 13 sec) 
Heartbeat CPU 0 instructions: 38000000 cycles: 121654356 heartbeat IPC: 0.262753 cumulative IPC: 0.241135 (Simulation time: 1 hr 15 min 1 sec) 
Heartbeat CPU 0 instructions: 39000000 cycles: 125384796 heartbeat IPC: 0.268065 cumulative IPC: 0.241974 (Simulation time: 1 hr 16 min 44 sec) 
Heartbeat CPU 0 instructions: 40000000 cycles: 129031155 heartbeat IPC: 0.274246 cumulative IPC: 0.242926 (Simulation time: 1 hr 18 min 36 sec) 
Heartbeat CPU 0 instructions: 41000000 cycles: 132656985 heartbeat IPC: 0.275799 cumulative IPC: 0.243864 (Simulation time: 1 hr 20 min 32 sec) 
Heartbeat CPU 0 instructions: 42000000 cycles: 136309792 heartbeat IPC: 0.273762 cumulative IPC: 0.244699 (Simulation time: 1 hr 22 min 29 sec) 
Heartbeat CPU 0 instructions: 43000002 cycles: 139968085 heartbeat IPC: 0.273352 cumulative IPC: 0.245479 (Simulation time: 1 hr 24 min 26 sec) 
Heartbeat CPU 0 instructions: 44000000 cycles: 143624806 heartbeat IPC: 0.273468 cumulative IPC: 0.24622 (Simulation time: 1 hr 26 min 25 sec) 
Heartbeat CPU 0 instructions: 45000001 cycles: 147245897 heartbeat IPC: 0.27616 cumulative IPC: 0.246985 (Simulation time: 1 hr 28 min 28 sec) 
Heartbeat CPU 0 instructions: 46000001 cycles: 150846912 heartbeat IPC: 0.277699 cumulative IPC: 0.247746 (Simulation time: 1 hr 30 min 22 sec) 
Heartbeat CPU 0 instructions: 47000001 cycles: 154437152 heartbeat IPC: 0.278533 cumulative IPC: 0.248489 (Simulation time: 1 hr 32 min 20 sec) 
Heartbeat CPU 0 instructions: 48000000 cycles: 158000724 heartbeat IPC: 0.280617 cumulative IPC: 0.24924 (Simulation time: 1 hr 34 min 16 sec) 
Heartbeat CPU 0 instructions: 49000000 cycles: 161582090 heartbeat IPC: 0.279223 cumulative IPC: 0.249928 (Simulation time: 1 hr 36 min 7 sec) 
Heartbeat CPU 0 instructions: 50000003 cycles: 165159668 heartbeat IPC: 0.27952 cumulative IPC: 0.250591 (Simulation time: 1 hr 38 min 0 sec) 
Heartbeat CPU 0 instructions: 51000001 cycles: 168734599 heartbeat IPC: 0.279725 cumulative IPC: 0.251229 (Simulation time: 1 hr 39 min 50 sec) 
Heartbeat CPU 0 instructions: 52000000 cycles: 172292634 heartbeat IPC: 0.281054 cumulative IPC: 0.251866 (Simulation time: 1 hr 41 min 46 sec) 
Heartbeat CPU 0 instructions: 53000001 cycles: 175869091 heartbeat IPC: 0.279607 cumulative IPC: 0.252448 (Simulation time: 1 hr 43 min 42 sec) 
Heartbeat CPU 0 instructions: 54000000 cycles: 179442563 heartbeat IPC: 0.27984 cumulative IPC: 0.253011 (Simulation time: 1 hr 45 min 42 sec) 
Heartbeat CPU 0 instructions: 55000000 cycles: 183020321 heartbeat IPC: 0.279505 cumulative IPC: 0.253545 (Simulation time: 1 hr 47 min 41 sec) 
Heartbeat CPU 0 instructions: 56000000 cycles: 186589914 heartbeat IPC: 0.280144 cumulative IPC: 0.254069 (Simulation time: 1 hr 49 min 34 sec) 
Heartbeat CPU 0 instructions: 57000002 cycles: 190129182 heartbeat IPC: 0.282545 cumulative IPC: 0.254615 (Simulation time: 1 hr 51 min 25 sec) 
Heartbeat CPU 0 instructions: 58000001 cycles: 193674401 heartbeat IPC: 0.28207 cumulative IPC: 0.255133 (Simulation time: 1 hr 53 min 9 sec) 
Heartbeat CPU 0 instructions: 59000003 cycles: 197191568 heartbeat IPC: 0.28432 cumulative IPC: 0.255668 (Simulation time: 1 hr 54 min 56 sec) 
Heartbeat CPU 0 instructions: 60000000 cycles: 200706075 heartbeat IPC: 0.284534 cumulative IPC: 0.256188 (Simulation time: 1 hr 56 min 43 sec) 
Heartbeat CPU 0 instructions: 61000000 cycles: 204214917 heartbeat IPC: 0.284994 cumulative IPC: 0.256697 (Simulation time: 1 hr 58 min 31 sec) 
Heartbeat CPU 0 instructions: 62000003 cycles: 207720654 heartbeat IPC: 0.285248 cumulative IPC: 0.257192 (Simulation time: 2 hr 0 min 10 sec) 
Heartbeat CPU 0 instructions: 63000001 cycles: 211228380 heartbeat IPC: 0.285084 cumulative IPC: 0.257668 (Simulation time: 2 hr 1 min 59 sec) 
Heartbeat CPU 0 instructions: 64000000 cycles: 214749746 heartbeat IPC: 0.28398 cumulative IPC: 0.25811 (Simulation time: 2 hr 3 min 52 sec) 
Heartbeat CPU 0 instructions: 65000000 cycles: 218290594 heartbeat IPC: 0.282418 cumulative IPC: 0.258515 (Simulation time: 2 hr 5 min 37 sec) 
Heartbeat CPU 0 instructions: 66000000 cycles: 221844431 heartbeat IPC: 0.281386 cumulative IPC: 0.258891 (Simulation time: 2 hr 7 min 28 sec) 
Heartbeat CPU 0 instructions: 67000001 cycles: 225605510 heartbeat IPC: 0.265881 cumulative IPC: 0.25901 (Simulation time: 2 hr 9 min 36 sec) 
Heartbeat CPU 0 instructions: 68000000 cycles: 229389782 heartbeat IPC: 0.264251 cumulative IPC: 0.259099 (Simulation time: 2 hr 11 min 35 sec) 
Heartbeat CPU 0 instructions: 69000003 cycles: 233168737 heartbeat IPC: 0.264624 cumulative IPC: 0.259191 (Simulation time: 2 hr 13 min 41 sec) 
Heartbeat CPU 0 instructions: 70000000 cycles: 236990587 heartbeat IPC: 0.261653 cumulative IPC: 0.259231 (Simulation time: 2 hr 15 min 40 sec) 
Heartbeat CPU 0 instructions: 71000002 cycles: 240603110 heartbeat IPC: 0.276815 cumulative IPC: 0.259501 (Simulation time: 2 hr 17 min 43 sec) 
Heartbeat CPU 0 instructions: 72000000 cycles: 244198395 heartbeat IPC: 0.278141 cumulative IPC: 0.259782 (Simulation time: 2 hr 19 min 40 sec) 
Heartbeat CPU 0 instructions: 73000003 cycles: 247790749 heartbeat IPC: 0.27837 cumulative IPC: 0.260058 (Simulation time: 2 hr 21 min 40 sec) 
Heartbeat CPU 0 instructions: 74000000 cycles: 251407690 heartbeat IPC: 0.276476 cumulative IPC: 0.260299 (Simulation time: 2 hr 23 min 40 sec) 
Heartbeat CPU 0 instructions: 75000000 cycles: 255021690 heartbeat IPC: 0.276702 cumulative IPC: 0.260537 (Simulation time: 2 hr 25 min 31 sec) 
Heartbeat CPU 0 instructions: 76000000 cycles: 258651174 heartbeat IPC: 0.275521 cumulative IPC: 0.260752 (Simulation time: 2 hr 27 min 16 sec) 
Heartbeat CPU 0 instructions: 77000000 cycles: 262250854 heartbeat IPC: 0.277802 cumulative IPC: 0.260991 (Simulation time: 2 hr 28 min 55 sec) 
Heartbeat CPU 0 instructions: 78000003 cycles: 265796985 heartbeat IPC: 0.281998 cumulative IPC: 0.261277 (Simulation time: 2 hr 30 min 31 sec) 
Heartbeat CPU 0 instructions: 79000000 cycles: 269373067 heartbeat IPC: 0.279635 cumulative IPC: 0.261526 (Simulation time: 2 hr 32 min 8 sec) 
Heartbeat CPU 0 instructions: 80000000 cycles: 272918146 heartbeat IPC: 0.282081 cumulative IPC: 0.261799 (Simulation time: 2 hr 33 min 36 sec) 
Heartbeat CPU 0 instructions: 81000001 cycles: 276448927 heartbeat IPC: 0.283224 cumulative IPC: 0.262078 (Simulation time: 2 hr 35 min 1 sec) 
Heartbeat CPU 0 instructions: 82000000 cycles: 279982569 heartbeat IPC: 0.282994 cumulative IPC: 0.262347 (Simulation time: 2 hr 36 min 24 sec) 
Heartbeat CPU 0 instructions: 83000003 cycles: 283534976 heartbeat IPC: 0.2815 cumulative IPC: 0.262592 (Simulation time: 2 hr 37 min 53 sec) 
Heartbeat CPU 0 instructions: 84000000 cycles: 287070895 heartbeat IPC: 0.282811 cumulative IPC: 0.262846 (Simulation time: 2 hr 39 min 15 sec) 
Heartbeat CPU 0 instructions: 85000000 cycles: 290596372 heartbeat IPC: 0.28365 cumulative IPC: 0.263103 (Simulation time: 2 hr 40 min 28 sec) 
Heartbeat CPU 0 instructions: 86000001 cycles: 294135706 heartbeat IPC: 0.282539 cumulative IPC: 0.263341 (Simulation time: 2 hr 41 min 36 sec) 
Heartbeat CPU 0 instructions: 87000001 cycles: 297679080 heartbeat IPC: 0.282217 cumulative IPC: 0.26357 (Simulation time: 2 hr 42 min 43 sec) 
Heartbeat CPU 0 instructions: 88000000 cycles: 301216154 heartbeat IPC: 0.282719 cumulative IPC: 0.263799 (Simulation time: 2 hr 43 min 47 sec) 
Heartbeat CPU 0 instructions: 89000003 cycles: 304750063 heartbeat IPC: 0.282974 cumulative IPC: 0.264026 (Simulation time: 2 hr 44 min 40 sec) 
Heartbeat CPU 0 instructions: 90000000 cycles: 308284998 heartbeat IPC: 0.28289 cumulative IPC: 0.264246 (Simulation time: 2 hr 45 min 34 sec) 
Heartbeat CPU 0 instructions: 91000000 cycles: 311811363 heartbeat IPC: 0.283578 cumulative IPC: 0.264469 (Simulation time: 2 hr 46 min 30 sec) 
Heartbeat CPU 0 instructions: 92000000 cycles: 315323191 heartbeat IPC: 0.284752 cumulative IPC: 0.264699 (Simulation time: 2 hr 47 min 22 sec) 
Heartbeat CPU 0 instructions: 93000001 cycles: 318839457 heartbeat IPC: 0.284393 cumulative IPC: 0.26492 (Simulation time: 2 hr 48 min 11 sec) 
Heartbeat CPU 0 instructions: 94000003 cycles: 322343029 heartbeat IPC: 0.285424 cumulative IPC: 0.265146 (Simulation time: 2 hr 48 min 57 sec) 
Heartbeat CPU 0 instructions: 95000002 cycles: 325855694 heartbeat IPC: 0.284684 cumulative IPC: 0.265361 (Simulation time: 2 hr 49 min 40 sec) 
Heartbeat CPU 0 instructions: 96000000 cycles: 329348808 heartbeat IPC: 0.286277 cumulative IPC: 0.265586 (Simulation time: 2 hr 50 min 23 sec) 
Heartbeat CPU 0 instructions: 97000000 cycles: 332838727 heartbeat IPC: 0.28654 cumulative IPC: 0.26581 (Simulation time: 2 hr 51 min 5 sec) 
Heartbeat CPU 0 instructions: 98000000 cycles: 336321932 heartbeat IPC: 0.287092 cumulative IPC: 0.266034 (Simulation time: 2 hr 51 min 47 sec) 
Heartbeat CPU 0 instructions: 99000000 cycles: 339820450 heartbeat IPC: 0.285835 cumulative IPC: 0.266241 (Simulation time: 2 hr 52 min 24 sec) 
Heartbeat CPU 0 instructions: 100000000 cycles: 343342992 heartbeat IPC: 0.283886 cumulative IPC: 0.266425 (Simulation time: 2 hr 52 min 58 sec) 
Heartbeat CPU 0 instructions: 101000003 cycles: 346821716 heartbeat IPC: 0.287463 cumulative IPC: 0.26664 (Simulation time: 2 hr 53 min 31 sec) 
Heartbeat CPU 0 instructions: 102000000 cycles: 350819116 heartbeat IPC: 0.250162 cumulative IPC: 0.266449 (Simulation time: 2 hr 54 min 2 sec) 
Heartbeat CPU 0 instructions: 103000002 cycles: 355159793 heartbeat IPC: 0.230379 cumulative IPC: 0.266001 (Simulation time: 2 hr 54 min 35 sec) 
Heartbeat CPU 0 instructions: 104000000 cycles: 359267358 heartbeat IPC: 0.243453 cumulative IPC: 0.265739 (Simulation time: 2 hr 55 min 7 sec) 
Heartbeat CPU 0 instructions: 105000000 cycles: 363148031 heartbeat IPC: 0.257687 cumulative IPC: 0.265652 (Simulation time: 2 hr 55 min 33 sec) 
Heartbeat CPU 0 instructions: 106000002 cycles: 367017506 heartbeat IPC: 0.258434 cumulative IPC: 0.265574 (Simulation time: 2 hr 55 min 59 sec) 
Heartbeat CPU 0 instructions: 107000001 cycles: 370925978 heartbeat IPC: 0.255854 cumulative IPC: 0.265471 (Simulation time: 2 hr 56 min 22 sec) 
Heartbeat CPU 0 instructions: 108000000 cycles: 374717182 heartbeat IPC: 0.263768 cumulative IPC: 0.265453 (Simulation time: 2 hr 56 min 43 sec) 
Heartbeat CPU 0 instructions: 109000000 cycles: 378426112 heartbeat IPC: 0.26962 cumulative IPC: 0.265494 (Simulation time: 2 hr 57 min 4 sec) 
Heartbeat CPU 0 instructions: 110000002 cycles: 382105558 heartbeat IPC: 0.271781 cumulative IPC: 0.265556 (Simulation time: 2 hr 57 min 23 sec) 
Finished CPU 0 instructions: 100000001 cycles: 376568563 cummulative IPC: 0.265556 (Simulation time: 2 hr 57 min 23 sec) 

ChampSim completed all CPUs

Region of Interest Statistics

CPU 0 cummulative IPC: 0.265556 instructions: 100000001 cycles: 376568563
LLC TOTAL     ACCESS:    2541048  HIT:     272416  MISS:    2268632
LLC LOAD      ACCESS:     647806  HIT:      77796  MISS:     570010
LLC RFO       ACCESS:     277638  HIT:      34680  MISS:     242958
LLC PREFETCH  ACCESS:    1132153  HIT:      81414  MISS:    1050739
LLC WRITEBACK ACCESS:     483451  HIT:      78526  MISS:     404925
