
*** ChampSim Multicore Out-of-Order Simulator ***

Warmup Instructions: 10000000
Simulation Instructions: 100000000
Configuration: 2
Number of CPUs: 1
LLC sets: 2048
LLC ways: 16
Off-chip DRAM Channels: 1 Width: 64-bit Data Rate: 1600 MT/s

CPU 0 runs /datasets/cs240c-wi22-a00-public/data/Assignment2-gz/cactusADM_1039B.trace.gz
CPU 0 L1D next line prefetcher
CPU 0 L2C IP-based stride prefetcher
config 2, num_core 1, llc_sets 2048
Heartbeat CPU 0 instructions: 1000000 cycles: 595518 heartbeat IPC: 1.67921 cumulative IPC: 1.67921 (Simulation time: 0 hr 1 min 50 sec) 
Heartbeat CPU 0 instructions: 2000002 cycles: 1190937 heartbeat IPC: 1.67949 cumulative IPC: 1.67935 (Simulation time: 0 hr 3 min 47 sec) 
Heartbeat CPU 0 instructions: 3000003 cycles: 1786622 heartbeat IPC: 1.67874 cumulative IPC: 1.67915 (Simulation time: 0 hr 5 min 34 sec) 
Heartbeat CPU 0 instructions: 4000000 cycles: 2382047 heartbeat IPC: 1.67947 cumulative IPC: 1.67923 (Simulation time: 0 hr 7 min 28 sec) 
Heartbeat CPU 0 instructions: 5000001 cycles: 2977458 heartbeat IPC: 1.67951 cumulative IPC: 1.67929 (Simulation time: 0 hr 9 min 26 sec) 
Heartbeat CPU 0 instructions: 6000002 cycles: 3572931 heartbeat IPC: 1.67934 cumulative IPC: 1.67929 (Simulation time: 0 hr 11 min 27 sec) 
Heartbeat CPU 0 instructions: 7000000 cycles: 4168307 heartbeat IPC: 1.67961 cumulative IPC: 1.67934 (Simulation time: 0 hr 13 min 35 sec) 
Heartbeat CPU 0 instructions: 8000000 cycles: 4763682 heartbeat IPC: 1.67961 cumulative IPC: 1.67937 (Simulation time: 0 hr 15 min 51 sec) 
Heartbeat CPU 0 instructions: 9000002 cycles: 5359337 heartbeat IPC: 1.67883 cumulative IPC: 1.67931 (Simulation time: 0 hr 17 min 59 sec) 
Heartbeat CPU 0 instructions: 10000003 cycles: 5974114 heartbeat IPC: 1.62661 cumulative IPC: 1.67389 (Simulation time: 0 hr 20 min 10 sec) 

Warmup complete CPU 0 instructions: 10000003 cycles: 5974114 (Simulation time: 0 hr 20 min 10 sec) 

Heartbeat CPU 0 instructions: 11000003 cycles: 12147419 heartbeat IPC: 0.161988 cumulative IPC: 0.161988 (Simulation time: 0 hr 22 min 56 sec) 
Heartbeat CPU 0 instructions: 12000000 cycles: 13889747 heartbeat IPC: 0.573943 cumulative IPC: 0.252664 (Simulation time: 0 hr 24 min 50 sec) 
Heartbeat CPU 0 instructions: 13000002 cycles: 15559192 heartbeat IPC: 0.599003 cumulative IPC: 0.312986 (Simulation time: 0 hr 26 min 46 sec) 
Heartbeat CPU 0 instructions: 14000001 cycles: 17267317 heartbeat IPC: 0.585437 cumulative IPC: 0.354195 (Simulation time: 0 hr 28 min 33 sec) 
Heartbeat CPU 0 instructions: 15000002 cycles: 19011006 heartbeat IPC: 0.573497 cumulative IPC: 0.383527 (Simulation time: 0 hr 30 min 23 sec) 
Heartbeat CPU 0 instructions: 16000000 cycles: 20757776 heartbeat IPC: 0.572484 cumulative IPC: 0.405853 (Simulation time: 0 hr 32 min 16 sec) 
Heartbeat CPU 0 instructions: 17000003 cycles: 22482371 heartbeat IPC: 0.579848 cumulative IPC: 0.42403 (Simulation time: 0 hr 34 min 2 sec) 
Heartbeat CPU 0 instructions: 18000002 cycles: 24137666 heartbeat IPC: 0.604121 cumulative IPC: 0.440442 (Simulation time: 0 hr 35 min 54 sec) 
Heartbeat CPU 0 instructions: 19000003 cycles: 25874291 heartbeat IPC: 0.57583 cumulative IPC: 0.452257 (Simulation time: 0 hr 37 min 36 sec) 
Heartbeat CPU 0 instructions: 20000000 cycles: 27618092 heartbeat IPC: 0.573458 cumulative IPC: 0.462022 (Simulation time: 0 hr 39 min 26 sec) 
Heartbeat CPU 0 instructions: 21000002 cycles: 29361755 heartbeat IPC: 0.573506 cumulative IPC: 0.470334 (Simulation time: 0 hr 41 min 15 sec) 
Heartbeat CPU 0 instructions: 22000003 cycles: 31052228 heartbeat IPC: 0.591551 cumulative IPC: 0.478505 (Simulation time: 0 hr 43 min 4 sec) 
Heartbeat CPU 0 instructions: 23000001 cycles: 32737556 heartbeat IPC: 0.593355 cumulative IPC: 0.485737 (Simulation time: 0 hr 44 min 49 sec) 
Heartbeat CPU 0 instructions: 24000000 cycles: 39492250 heartbeat IPC: 0.148045 cumulative IPC: 0.417684 (Simulation time: 0 hr 47 min 11 sec) 
Heartbeat CPU 0 instructions: 25000002 cycles: 41234660 heartbeat IPC: 0.573919 cumulative IPC: 0.425405 (Simulation time: 0 hr 49 min 6 sec) 
Heartbeat CPU 0 instructions: 26000002 cycles: 42962984 heartbeat IPC: 0.578595 cumulative IPC: 0.432563 (Simulation time: 0 hr 50 min 52 sec) 
Heartbeat CPU 0 instructions: 27000002 cycles: 44630910 heartbeat IPC: 0.599547 cumulative IPC: 0.439767 (Simulation time: 0 hr 52 min 45 sec) 
Heartbeat CPU 0 instructions: 28000000 cycles: 46364348 heartbeat IPC: 0.576887 cumulative IPC: 0.445652 (Simulation time: 0 hr 54 min 36 sec) 
Heartbeat CPU 0 instructions: 29000000 cycles: 48107537 heartbeat IPC: 0.573661 cumulative IPC: 0.450948 (Simulation time: 0 hr 56 min 21 sec) 
Heartbeat CPU 0 instructions: 30000003 cycles: 49848910 heartbeat IPC: 0.574261 cumulative IPC: 0.455843 (Simulation time: 0 hr 58 min 6 sec) 
Heartbeat CPU 0 instructions: 31000001 cycles: 51546991 heartbeat IPC: 0.588899 cumulative IPC: 0.4608 (Simulation time: 0 hr 59 min 52 sec) 
Heartbeat CPU 0 instructions: 32000000 cycles: 53225869 heartbeat IPC: 0.595635 cumulative IPC: 0.465591 (Simulation time: 1 hr 1 min 44 sec) 
Heartbeat CPU 0 instructions: 33000001 cycles: 54966120 heartbeat IPC: 0.57463 cumulative IPC: 0.469464 (Simulation time: 1 hr 3 min 39 sec) 
Heartbeat CPU 0 instructions: 34000000 cycles: 56708578 heartbeat IPC: 0.573901 cumulative IPC: 0.473051 (Simulation time: 1 hr 5 min 37 sec) 
Heartbeat CPU 0 instructions: 35000001 cycles: 58446460 heartbeat IPC: 0.575414 cumulative IPC: 0.476441 (Simulation time: 1 hr 7 min 29 sec) 
Heartbeat CPU 0 instructions: 36000000 cycles: 60112111 heartbeat IPC: 0.600365 cumulative IPC: 0.480254 (Simulation time: 1 hr 9 min 24 sec) 
Heartbeat CPU 0 instructions: 37000002 cycles: 66799301 heartbeat IPC: 0.14954 cumulative IPC: 0.443895 (Simulation time: 1 hr 11 min 36 sec) 
Heartbeat CPU 0 instructions: 38000001 cycles: 68543345 heartbeat IPC: 0.573379 cumulative IPC: 0.447504 (Simulation time: 1 hr 13 min 31 sec) 
Heartbeat CPU 0 instructions: 39000002 cycles: 70289115 heartbeat IPC: 0.572814 cumulative IPC: 0.450906 (Simulation time: 1 hr 15 min 24 sec) 
Heartbeat CPU 0 instructions: 40000000 cycles: 71990566 heartbeat IPC: 0.587732 cumulative IPC: 0.454432 (Simulation time: 1 hr 17 min 24 sec) 
Heartbeat CPU 0 instructions: 41000003 cycles: 73664728 heartbeat IPC: 0.597316 cumulative IPC: 0.457966 (Simulation time: 1 hr 19 min 33 sec) 
Heartbeat CPU 0 instructions: 42000000 cycles: 75405512 heartbeat IPC: 0.574452 cumulative IPC: 0.460887 (Simulation time: 1 hr 21 min 48 sec) 
Heartbeat CPU 0 instructions: 43000000 cycles: 77151386 heartbeat IPC: 0.572779 cumulative IPC: 0.463631 (Simulation time: 1 hr 24 min 9 sec) 
Heartbeat CPU 0 instructions: 44000000 cycles: 78891967 heartbeat IPC: 0.574521 cumulative IPC: 0.466278 (Simulation time: 1 hr 26 min 21 sec) 
Heartbeat CPU 0 instructions: 45000000 cycles: 80563822 heartbeat IPC: 0.598138 cumulative IPC: 0.469234 (Simulation time: 1 hr 28 min 31 sec) 
Heartbeat CPU 0 instructions: 46000003 cycles: 82271666 heartbeat IPC: 0.585535 cumulative IPC: 0.471837 (Simulation time: 1 hr 30 min 35 sec) 
Heartbeat CPU 0 instructions: 47000001 cycles: 84015317 heartbeat IPC: 0.573508 cumulative IPC: 0.474109 (Simulation time: 1 hr 32 min 38 sec) 
Heartbeat CPU 0 instructions: 48000000 cycles: 85758669 heartbeat IPC: 0.573607 cumulative IPC: 0.476283 (Simulation time: 1 hr 34 min 41 sec) 
Heartbeat CPU 0 instructions: 49000001 cycles: 87485716 heartbeat IPC: 0.579024 cumulative IPC: 0.478459 (Simulation time: 1 hr 36 min 43 sec) 
Heartbeat CPU 0 instructions: 50000000 cycles: 94211222 heartbeat IPC: 0.148688 cumulative IPC: 0.453324 (Simulation time: 1 hr 39 min 14 sec) 
Heartbeat CPU 0 instructions: 51000003 cycles: 95979479 heartbeat IPC: 0.56553 cumulative IPC: 0.455528 (Simulation time: 1 hr 41 min 17 sec) 
Heartbeat CPU 0 instructions: 52000000 cycles: 97755265 heartbeat IPC: 0.563129 cumulative IPC: 0.45761 (Simulation time: 1 hr 43 min 17 sec) 
Heartbeat CPU 0 instructions: 53000003 cycles: 99529349 heartbeat IPC: 0.563673 cumulative IPC: 0.459622 (Simulation time: 1 hr 45 min 25 sec) 
Heartbeat CPU 0 instructions: 54000002 cycles: 101247655 heartbeat IPC: 0.581968 cumulative IPC: 0.461828 (Simulation time: 1 hr 47 min 27 sec) 
Heartbeat CPU 0 instructions: 55000001 cycles: 102975831 heartbeat IPC: 0.578644 cumulative IPC: 0.463909 (Simulation time: 1 hr 49 min 29 sec) 
Heartbeat CPU 0 instructions: 56000000 cycles: 104748292 heartbeat IPC: 0.564187 cumulative IPC: 0.465709 (Simulation time: 1 hr 51 min 23 sec) 
Heartbeat CPU 0 instructions: 57000000 cycles: 106524811 heartbeat IPC: 0.562899 cumulative IPC: 0.467426 (Simulation time: 1 hr 53 min 12 sec) 
Heartbeat CPU 0 instructions: 58000000 cycles: 108292986 heartbeat IPC: 0.565555 cumulative IPC: 0.469122 (Simulation time: 1 hr 55 min 2 sec) 
Heartbeat CPU 0 instructions: 59000002 cycles: 109982537 heartbeat IPC: 0.591874 cumulative IPC: 0.471116 (Simulation time: 1 hr 56 min 50 sec) 
Heartbeat CPU 0 instructions: 60000000 cycles: 111744588 heartbeat IPC: 0.567519 cumulative IPC: 0.472722 (Simulation time: 1 hr 58 min 37 sec) 
Heartbeat CPU 0 instructions: 61000001 cycles: 113522971 heartbeat IPC: 0.562309 cumulative IPC: 0.474203 (Simulation time: 2 hr 0 min 22 sec) 
Heartbeat CPU 0 instructions: 62000000 cycles: 115299236 heartbeat IPC: 0.562979 cumulative IPC: 0.475645 (Simulation time: 2 hr 2 min 4 sec) 
Heartbeat CPU 0 instructions: 63000001 cycles: 121574442 heartbeat IPC: 0.159357 cumulative IPC: 0.458476 (Simulation time: 2 hr 4 min 16 sec) 
Heartbeat CPU 0 instructions: 64000000 cycles: 123857170 heartbeat IPC: 0.438072 cumulative IPC: 0.458081 (Simulation time: 2 hr 6 min 1 sec) 
Heartbeat CPU 0 instructions: 65000002 cycles: 125631748 heartbeat IPC: 0.563515 cumulative IPC: 0.459645 (Simulation time: 2 hr 7 min 48 sec) 
Heartbeat CPU 0 instructions: 66000001 cycles: 127406653 heartbeat IPC: 0.56341 cumulative IPC: 0.461161 (Simulation time: 2 hr 9 min 43 sec) 
Heartbeat CPU 0 instructions: 67000003 cycles: 129172052 heartbeat IPC: 0.566445 cumulative IPC: 0.46267 (Simulation time: 2 hr 11 min 34 sec) 
Heartbeat CPU 0 instructions: 68000000 cycles: 130896450 heartbeat IPC: 0.579911 cumulative IPC: 0.464288 (Simulation time: 2 hr 13 min 29 sec) 
Heartbeat CPU 0 instructions: 69000003 cycles: 132674274 heartbeat IPC: 0.562487 cumulative IPC: 0.465666 (Simulation time: 2 hr 15 min 21 sec) 
Heartbeat CPU 0 instructions: 70000002 cycles: 134447706 heartbeat IPC: 0.563878 cumulative IPC: 0.467022 (Simulation time: 2 hr 17 min 17 sec) 
Heartbeat CPU 0 instructions: 71000000 cycles: 136222295 heartbeat IPC: 0.56351 cumulative IPC: 0.468337 (Simulation time: 2 hr 19 min 7 sec) 
Heartbeat CPU 0 instructions: 72000000 cycles: 137971386 heartbeat IPC: 0.571726 cumulative IPC: 0.469707 (Simulation time: 2 hr 20 min 59 sec) 
Heartbeat CPU 0 instructions: 73000001 cycles: 139674392 heartbeat IPC: 0.587198 cumulative IPC: 0.471203 (Simulation time: 2 hr 22 min 44 sec) 
Heartbeat CPU 0 instructions: 74000003 cycles: 141445752 heartbeat IPC: 0.564539 cumulative IPC: 0.472424 (Simulation time: 2 hr 24 min 27 sec) 
Heartbeat CPU 0 instructions: 75000002 cycles: 143222314 heartbeat IPC: 0.562884 cumulative IPC: 0.473595 (Simulation time: 2 hr 26 min 10 sec) 
Heartbeat CPU 0 instructions: 76000000 cycles: 148557517 heartbeat IPC: 0.187434 cumulative IPC: 0.462887 (Simulation time: 2 hr 28 min 4 sec) 
Heartbeat CPU 0 instructions: 77000001 cycles: 151764976 heartbeat IPC: 0.311774 cumulative IPC: 0.459562 (Simulation time: 2 hr 29 min 40 sec) 
Heartbeat CPU 0 instructions: 78000000 cycles: 153517606 heartbeat IPC: 0.570571 cumulative IPC: 0.460881 (Simulation time: 2 hr 31 min 2 sec) 
Heartbeat CPU 0 instructions: 79000002 cycles: 155291005 heartbeat IPC: 0.56389 cumulative IPC: 0.462104 (Simulation time: 2 hr 32 min 26 sec) 
Heartbeat CPU 0 instructions: 80000000 cycles: 157061105 heartbeat IPC: 0.564939 cumulative IPC: 0.463309 (Simulation time: 2 hr 33 min 46 sec) 
Heartbeat CPU 0 instructions: 81000002 cycles: 158805525 heartbeat IPC: 0.573258 cumulative IPC: 0.464564 (Simulation time: 2 hr 35 min 2 sec) 
Heartbeat CPU 0 instructions: 82000002 cycles: 160500536 heartbeat IPC: 0.589967 cumulative IPC: 0.46594 (Simulation time: 2 hr 36 min 18 sec) 
Heartbeat CPU 0 instructions: 83000003 cycles: 162268582 heartbeat IPC: 0.565597 cumulative IPC: 0.467067 (Simulation time: 2 hr 37 min 36 sec) 
Heartbeat CPU 0 instructions: 84000000 cycles: 164041865 heartbeat IPC: 0.563924 cumulative IPC: 0.468154 (Simulation time: 2 hr 38 min 54 sec) 
Heartbeat CPU 0 instructions: 85000002 cycles: 165815162 heartbeat IPC: 0.563922 cumulative IPC: 0.469216 (Simulation time: 2 hr 40 min 3 sec) 
Heartbeat CPU 0 instructions: 86000003 cycles: 167532654 heartbeat IPC: 0.582245 cumulative IPC: 0.470418 (Simulation time: 2 hr 41 min 7 sec) 
Heartbeat CPU 0 instructions: 87000000 cycles: 169278005 heartbeat IPC: 0.572949 cumulative IPC: 0.471514 (Simulation time: 2 hr 42 min 12 sec) 
Heartbeat CPU 0 instructions: 88000000 cycles: 171049989 heartbeat IPC: 0.564339 cumulative IPC: 0.47251 (Simulation time: 2 hr 43 min 10 sec) 
Heartbeat CPU 0 instructions: 89000001 cycles: 175427611 heartbeat IPC: 0.228435 cumulative IPC: 0.466205 (Simulation time: 2 hr 44 min 13 sec) 
Heartbeat CPU 0 instructions: 90000002 cycles: 179589052 heartbeat IPC: 0.240302 cumulative IPC: 0.46079 (Simulation time: 2 hr 45 min 14 sec) 
Heartbeat CPU 0 instructions: 91000000 cycles: 181286957 heartbeat IPC: 0.58896 cumulative IPC: 0.462031 (Simulation time: 2 hr 46 min 3 sec) 
Heartbeat CPU 0 instructions: 92000000 cycles: 183054893 heartbeat IPC: 0.565631 cumulative IPC: 0.463065 (Simulation time: 2 hr 46 min 56 sec) 
Heartbeat CPU 0 instructions: 93000001 cycles: 184825754 heartbeat IPC: 0.564698 cumulative IPC: 0.464072 (Simulation time: 2 hr 47 min 46 sec) 
Heartbeat CPU 0 instructions: 94000003 cycles: 186598365 heartbeat IPC: 0.564141 cumulative IPC: 0.465054 (Simulation time: 2 hr 48 min 33 sec) 
Heartbeat CPU 0 instructions: 95000001 cycles: 188318685 heartbeat IPC: 0.581286 cumulative IPC: 0.46615 (Simulation time: 2 hr 49 min 24 sec) 
Heartbeat CPU 0 instructions: 96000000 cycles: 190039116 heartbeat IPC: 0.581249 cumulative IPC: 0.467226 (Simulation time: 2 hr 50 min 14 sec) 
Heartbeat CPU 0 instructions: 97000002 cycles: 191808449 heartbeat IPC: 0.565186 cumulative IPC: 0.468159 (Simulation time: 2 hr 51 min 0 sec) 
Heartbeat CPU 0 instructions: 98000000 cycles: 193582595 heartbeat IPC: 0.56365 cumulative IPC: 0.469062 (Simulation time: 2 hr 51 min 39 sec) 
Heartbeat CPU 0 instructions: 99000002 cycles: 195351155 heartbeat IPC: 0.565433 cumulative IPC: 0.469962 (Simulation time: 2 hr 52 min 20 sec) 
Heartbeat CPU 0 instructions: 100000000 cycles: 197044271 heartbeat IPC: 0.590626 cumulative IPC: 0.471031 (Simulation time: 2 hr 52 min 55 sec) 
Heartbeat CPU 0 instructions: 101000002 cycles: 198802082 heartbeat IPC: 0.568891 cumulative IPC: 0.471923 (Simulation time: 2 hr 53 min 26 sec) 
Heartbeat CPU 0 instructions: 102000000 cycles: 202176632 heartbeat IPC: 0.296335 cumulative IPC: 0.468903 (Simulation time: 2 hr 53 min 59 sec) 
Heartbeat CPU 0 instructions: 103000002 cycles: 207334476 heartbeat IPC: 0.19388 cumulative IPC: 0.461859 (Simulation time: 2 hr 54 min 32 sec) 
Heartbeat CPU 0 instructions: 104000000 cycles: 209064490 heartbeat IPC: 0.578029 cumulative IPC: 0.462848 (Simulation time: 2 hr 55 min 2 sec) 
Heartbeat CPU 0 instructions: 105000002 cycles: 210783860 heartbeat IPC: 0.58161 cumulative IPC: 0.463845 (Simulation time: 2 hr 55 min 30 sec) 
Heartbeat CPU 0 instructions: 106000001 cycles: 212557589 heartbeat IPC: 0.563783 cumulative IPC: 0.464703 (Simulation time: 2 hr 55 min 56 sec) 
Heartbeat CPU 0 instructions: 107000003 cycles: 214326534 heartbeat IPC: 0.56531 cumulative IPC: 0.465557 (Simulation time: 2 hr 56 min 19 sec) 
Heartbeat CPU 0 instructions: 108000000 cycles: 216092172 heartbeat IPC: 0.566366 cumulative IPC: 0.466404 (Simulation time: 2 hr 56 min 39 sec) 
Heartbeat CPU 0 instructions: 109000003 cycles: 217786399 heartbeat IPC: 0.590241 cumulative IPC: 0.467395 (Simulation time: 2 hr 57 min 0 sec) 
Heartbeat CPU 0 instructions: 110000002 cycles: 219532116 heartbeat IPC: 0.57283 cumulative IPC: 0.468257 (Simulation time: 2 hr 57 min 18 sec) 
Finished CPU 0 instructions: 100000003 cycles: 213558003 cummulative IPC: 0.468257 (Simulation time: 2 hr 57 min 18 sec) 

ChampSim completed all CPUs

Region of Interest Statistics

CPU 0 cummulative IPC: 0.468257 instructions: 100000003 cycles: 213558003
LLC TOTAL     ACCESS:    1173274  HIT:     164854  MISS:    1008420
LLC LOAD      ACCESS:      29704  HIT:        794  MISS:      28910
LLC RFO       ACCESS:     265309  HIT:      20886  MISS:     244423
LLC PREFETCH  ACCESS:     610918  HIT:      92209  MISS:     518709
LLC WRITEBACK ACCESS:     267343  HIT:      50965  MISS:     216378
