
*** ChampSim Multicore Out-of-Order Simulator ***

Warmup Instructions: 10000000
Simulation Instructions: 100000000
Configuration: 2
Number of CPUs: 1
LLC sets: 2048
LLC ways: 16
Off-chip DRAM Channels: 1 Width: 64-bit Data Rate: 1600 MT/s

CPU 0 runs /datasets/cs240c-wi22-a00-public/data/Assignment2-gz/libquantum_964B.trace.gz
CPU 0 L1D next line prefetcher
CPU 0 L2C IP-based stride prefetcher
config 2, num_core 1, llc_sets 2048
Heartbeat CPU 0 instructions: 1000002 cycles: 333341 heartbeat IPC: 2.99994 cumulative IPC: 2.99994 (Simulation time: 0 hr 0 min 54 sec) 
Heartbeat CPU 0 instructions: 2000001 cycles: 666674 heartbeat IPC: 3 cumulative IPC: 2.99997 (Simulation time: 0 hr 1 min 46 sec) 
Heartbeat CPU 0 instructions: 3000000 cycles: 1000007 heartbeat IPC: 3 cumulative IPC: 2.99998 (Simulation time: 0 hr 2 min 43 sec) 
Heartbeat CPU 0 instructions: 4000000 cycles: 1333341 heartbeat IPC: 2.99999 cumulative IPC: 2.99998 (Simulation time: 0 hr 3 min 36 sec) 
Heartbeat CPU 0 instructions: 5000000 cycles: 1666674 heartbeat IPC: 3 cumulative IPC: 2.99999 (Simulation time: 0 hr 4 min 30 sec) 
Heartbeat CPU 0 instructions: 6000002 cycles: 2000008 heartbeat IPC: 3 cumulative IPC: 2.99999 (Simulation time: 0 hr 5 min 22 sec) 
Heartbeat CPU 0 instructions: 7000001 cycles: 2331518 heartbeat IPC: 3.0165 cumulative IPC: 3.00234 (Simulation time: 0 hr 6 min 15 sec) 
Heartbeat CPU 0 instructions: 8000000 cycles: 2662240 heartbeat IPC: 3.02368 cumulative IPC: 3.00499 (Simulation time: 0 hr 7 min 11 sec) 
Heartbeat CPU 0 instructions: 9000001 cycles: 2992962 heartbeat IPC: 3.02369 cumulative IPC: 3.00705 (Simulation time: 0 hr 8 min 8 sec) 
Heartbeat CPU 0 instructions: 10000001 cycles: 3323684 heartbeat IPC: 3.02369 cumulative IPC: 3.00871 (Simulation time: 0 hr 9 min 1 sec) 

Warmup complete CPU 0 instructions: 10000001 cycles: 3323684 (Simulation time: 0 hr 9 min 1 sec) 

Heartbeat CPU 0 instructions: 11000000 cycles: 5048472 heartbeat IPC: 0.579781 cumulative IPC: 0.579781 (Simulation time: 0 hr 10 min 24 sec) 
Heartbeat CPU 0 instructions: 12000000 cycles: 6783450 heartbeat IPC: 0.576376 cumulative IPC: 0.578074 (Simulation time: 0 hr 11 min 39 sec) 
Heartbeat CPU 0 instructions: 13000001 cycles: 8511298 heartbeat IPC: 0.578755 cumulative IPC: 0.578301 (Simulation time: 0 hr 13 min 1 sec) 
Heartbeat CPU 0 instructions: 14000000 cycles: 10241505 heartbeat IPC: 0.577965 cumulative IPC: 0.578217 (Simulation time: 0 hr 14 min 18 sec) 
Heartbeat CPU 0 instructions: 15000003 cycles: 11973220 heartbeat IPC: 0.577464 cumulative IPC: 0.578066 (Simulation time: 0 hr 15 min 39 sec) 
Heartbeat CPU 0 instructions: 16000000 cycles: 13699698 heartbeat IPC: 0.579212 cumulative IPC: 0.578257 (Simulation time: 0 hr 16 min 52 sec) 
Heartbeat CPU 0 instructions: 17000000 cycles: 15435126 heartbeat IPC: 0.576227 cumulative IPC: 0.577966 (Simulation time: 0 hr 18 min 9 sec) 
Heartbeat CPU 0 instructions: 18000003 cycles: 17159433 heartbeat IPC: 0.579945 cumulative IPC: 0.578212 (Simulation time: 0 hr 19 min 23 sec) 
Heartbeat CPU 0 instructions: 19000002 cycles: 18871702 heartbeat IPC: 0.58402 cumulative IPC: 0.578852 (Simulation time: 0 hr 20 min 41 sec) 
Heartbeat CPU 0 instructions: 20000000 cycles: 20435017 heartbeat IPC: 0.639665 cumulative IPC: 0.584408 (Simulation time: 0 hr 22 min 1 sec) 
Heartbeat CPU 0 instructions: 21000003 cycles: 22155044 heartbeat IPC: 0.581388 cumulative IPC: 0.584132 (Simulation time: 0 hr 23 min 19 sec) 
Heartbeat CPU 0 instructions: 22000002 cycles: 23884154 heartbeat IPC: 0.578332 cumulative IPC: 0.583644 (Simulation time: 0 hr 24 min 36 sec) 
Heartbeat CPU 0 instructions: 23000000 cycles: 25608791 heartbeat IPC: 0.579831 cumulative IPC: 0.583349 (Simulation time: 0 hr 25 min 52 sec) 
Heartbeat CPU 0 instructions: 24000000 cycles: 27348441 heartbeat IPC: 0.574828 cumulative IPC: 0.582732 (Simulation time: 0 hr 27 min 13 sec) 
Heartbeat CPU 0 instructions: 25000000 cycles: 29075233 heartbeat IPC: 0.579109 cumulative IPC: 0.582489 (Simulation time: 0 hr 28 min 29 sec) 
Heartbeat CPU 0 instructions: 26000002 cycles: 31119333 heartbeat IPC: 0.489214 cumulative IPC: 0.57563 (Simulation time: 0 hr 30 min 4 sec) 
Heartbeat CPU 0 instructions: 27000002 cycles: 33352515 heartbeat IPC: 0.447792 cumulative IPC: 0.566123 (Simulation time: 0 hr 31 min 45 sec) 
Heartbeat CPU 0 instructions: 28000000 cycles: 35596608 heartbeat IPC: 0.445613 cumulative IPC: 0.557743 (Simulation time: 0 hr 33 min 24 sec) 
Heartbeat CPU 0 instructions: 29000002 cycles: 37836217 heartbeat IPC: 0.446507 cumulative IPC: 0.550525 (Simulation time: 0 hr 35 min 6 sec) 
Heartbeat CPU 0 instructions: 30000002 cycles: 40078988 heartbeat IPC: 0.445877 cumulative IPC: 0.544139 (Simulation time: 0 hr 36 min 47 sec) 
Heartbeat CPU 0 instructions: 31000002 cycles: 42322634 heartbeat IPC: 0.445703 cumulative IPC: 0.538476 (Simulation time: 0 hr 38 min 26 sec) 
Heartbeat CPU 0 instructions: 32000000 cycles: 44565368 heartbeat IPC: 0.445883 cumulative IPC: 0.533441 (Simulation time: 0 hr 40 min 5 sec) 
Heartbeat CPU 0 instructions: 33000002 cycles: 46406481 heartbeat IPC: 0.543151 cumulative IPC: 0.533856 (Simulation time: 0 hr 41 min 39 sec) 
Heartbeat CPU 0 instructions: 34000002 cycles: 48650058 heartbeat IPC: 0.445717 cumulative IPC: 0.529493 (Simulation time: 0 hr 43 min 17 sec) 
Heartbeat CPU 0 instructions: 35000002 cycles: 50886680 heartbeat IPC: 0.447103 cumulative IPC: 0.525619 (Simulation time: 0 hr 45 min 1 sec) 
Heartbeat CPU 0 instructions: 36000000 cycles: 53045993 heartbeat IPC: 0.463109 cumulative IPC: 0.522904 (Simulation time: 0 hr 46 min 37 sec) 
Heartbeat CPU 0 instructions: 37000001 cycles: 54526609 heartbeat IPC: 0.675395 cumulative IPC: 0.527314 (Simulation time: 0 hr 47 min 59 sec) 
Heartbeat CPU 0 instructions: 38000000 cycles: 55992604 heartbeat IPC: 0.68213 cumulative IPC: 0.531623 (Simulation time: 0 hr 49 min 20 sec) 
Heartbeat CPU 0 instructions: 39000003 cycles: 57458770 heartbeat IPC: 0.682053 cumulative IPC: 0.535697 (Simulation time: 0 hr 50 min 40 sec) 
Heartbeat CPU 0 instructions: 40000000 cycles: 58924852 heartbeat IPC: 0.682088 cumulative IPC: 0.539557 (Simulation time: 0 hr 52 min 3 sec) 
Heartbeat CPU 0 instructions: 41000001 cycles: 60391072 heartbeat IPC: 0.682027 cumulative IPC: 0.543217 (Simulation time: 0 hr 53 min 28 sec) 
Heartbeat CPU 0 instructions: 42000000 cycles: 61857152 heartbeat IPC: 0.68209 cumulative IPC: 0.546696 (Simulation time: 0 hr 54 min 52 sec) 
Heartbeat CPU 0 instructions: 43000001 cycles: 63323315 heartbeat IPC: 0.682053 cumulative IPC: 0.550003 (Simulation time: 0 hr 56 min 12 sec) 
Heartbeat CPU 0 instructions: 44000000 cycles: 64789398 heartbeat IPC: 0.682089 cumulative IPC: 0.553154 (Simulation time: 0 hr 57 min 36 sec) 
Heartbeat CPU 0 instructions: 45000002 cycles: 66255505 heartbeat IPC: 0.68208 cumulative IPC: 0.556157 (Simulation time: 0 hr 59 min 3 sec) 
Heartbeat CPU 0 instructions: 46000001 cycles: 67721686 heartbeat IPC: 0.682043 cumulative IPC: 0.559024 (Simulation time: 1 hr 0 min 29 sec) 
Heartbeat CPU 0 instructions: 47000000 cycles: 69187776 heartbeat IPC: 0.682086 cumulative IPC: 0.561763 (Simulation time: 1 hr 1 min 54 sec) 
Heartbeat CPU 0 instructions: 48000000 cycles: 70653940 heartbeat IPC: 0.682052 cumulative IPC: 0.564382 (Simulation time: 1 hr 3 min 14 sec) 
Heartbeat CPU 0 instructions: 49000002 cycles: 71825115 heartbeat IPC: 0.853845 cumulative IPC: 0.569331 (Simulation time: 1 hr 4 min 33 sec) 
Heartbeat CPU 0 instructions: 50000001 cycles: 73264346 heartbeat IPC: 0.694815 cumulative IPC: 0.571913 (Simulation time: 1 hr 5 min 55 sec) 
Heartbeat CPU 0 instructions: 51000000 cycles: 74730436 heartbeat IPC: 0.682086 cumulative IPC: 0.574175 (Simulation time: 1 hr 7 min 19 sec) 
Heartbeat CPU 0 instructions: 52000000 cycles: 76196701 heartbeat IPC: 0.682005 cumulative IPC: 0.576345 (Simulation time: 1 hr 8 min 40 sec) 
Heartbeat CPU 0 instructions: 53000000 cycles: 77662907 heartbeat IPC: 0.682032 cumulative IPC: 0.57843 (Simulation time: 1 hr 10 min 4 sec) 
Heartbeat CPU 0 instructions: 54000002 cycles: 79128993 heartbeat IPC: 0.68209 cumulative IPC: 0.580434 (Simulation time: 1 hr 11 min 28 sec) 
Heartbeat CPU 0 instructions: 55000002 cycles: 80638178 heartbeat IPC: 0.662609 cumulative IPC: 0.582038 (Simulation time: 1 hr 12 min 52 sec) 
Heartbeat CPU 0 instructions: 56000000 cycles: 82358848 heartbeat IPC: 0.581168 cumulative IPC: 0.582019 (Simulation time: 1 hr 14 min 7 sec) 
Heartbeat CPU 0 instructions: 57000001 cycles: 84099129 heartbeat IPC: 0.57462 cumulative IPC: 0.58186 (Simulation time: 1 hr 15 min 22 sec) 
Heartbeat CPU 0 instructions: 58000000 cycles: 85829736 heartbeat IPC: 0.577831 cumulative IPC: 0.581775 (Simulation time: 1 hr 16 min 36 sec) 
Heartbeat CPU 0 instructions: 59000003 cycles: 87568246 heartbeat IPC: 0.575207 cumulative IPC: 0.58164 (Simulation time: 1 hr 17 min 49 sec) 
Heartbeat CPU 0 instructions: 60000000 cycles: 89303018 heartbeat IPC: 0.576443 cumulative IPC: 0.581535 (Simulation time: 1 hr 18 min 58 sec) 
Heartbeat CPU 0 instructions: 61000002 cycles: 91034564 heartbeat IPC: 0.57752 cumulative IPC: 0.581456 (Simulation time: 1 hr 20 min 13 sec) 
Heartbeat CPU 0 instructions: 62000001 cycles: 92772618 heartbeat IPC: 0.575356 cumulative IPC: 0.581337 (Simulation time: 1 hr 21 min 27 sec) 
Heartbeat CPU 0 instructions: 63000001 cycles: 94503049 heartbeat IPC: 0.577891 cumulative IPC: 0.581272 (Simulation time: 1 hr 22 min 43 sec) 
Heartbeat CPU 0 instructions: 64000000 cycles: 96240903 heartbeat IPC: 0.575422 cumulative IPC: 0.581162 (Simulation time: 1 hr 24 min 7 sec) 
Heartbeat CPU 0 instructions: 65000002 cycles: 97969515 heartbeat IPC: 0.5785 cumulative IPC: 0.581114 (Simulation time: 1 hr 25 min 26 sec) 
Heartbeat CPU 0 instructions: 66000002 cycles: 99702504 heartbeat IPC: 0.577038 cumulative IPC: 0.581041 (Simulation time: 1 hr 26 min 41 sec) 
Heartbeat CPU 0 instructions: 67000000 cycles: 101433357 heartbeat IPC: 0.577749 cumulative IPC: 0.580982 (Simulation time: 1 hr 28 min 2 sec) 
Heartbeat CPU 0 instructions: 68000000 cycles: 102810261 heartbeat IPC: 0.726267 cumulative IPC: 0.582993 (Simulation time: 1 hr 29 min 22 sec) 
Heartbeat CPU 0 instructions: 69000000 cycles: 104525003 heartbeat IPC: 0.583178 cumulative IPC: 0.582996 (Simulation time: 1 hr 30 min 38 sec) 
Heartbeat CPU 0 instructions: 70000002 cycles: 106257320 heartbeat IPC: 0.577263 cumulative IPC: 0.5829 (Simulation time: 1 hr 31 min 53 sec) 
Heartbeat CPU 0 instructions: 71000001 cycles: 107994168 heartbeat IPC: 0.575755 cumulative IPC: 0.582781 (Simulation time: 1 hr 33 min 7 sec) 
Heartbeat CPU 0 instructions: 72000000 cycles: 109733169 heartbeat IPC: 0.575042 cumulative IPC: 0.582655 (Simulation time: 1 hr 34 min 21 sec) 
Heartbeat CPU 0 instructions: 73000000 cycles: 111469437 heartbeat IPC: 0.575948 cumulative IPC: 0.582547 (Simulation time: 1 hr 35 min 39 sec) 
Heartbeat CPU 0 instructions: 74000000 cycles: 113246307 heartbeat IPC: 0.562787 cumulative IPC: 0.582228 (Simulation time: 1 hr 36 min 55 sec) 
Heartbeat CPU 0 instructions: 75000000 cycles: 115433111 heartbeat IPC: 0.457288 cumulative IPC: 0.579791 (Simulation time: 1 hr 38 min 40 sec) 
Heartbeat CPU 0 instructions: 76000000 cycles: 117546016 heartbeat IPC: 0.473282 cumulative IPC: 0.57782 (Simulation time: 1 hr 40 min 22 sec) 
Heartbeat CPU 0 instructions: 77000000 cycles: 119651727 heartbeat IPC: 0.474899 cumulative IPC: 0.575957 (Simulation time: 1 hr 42 min 3 sec) 
Heartbeat CPU 0 instructions: 78000000 cycles: 121761373 heartbeat IPC: 0.474013 cumulative IPC: 0.574142 (Simulation time: 1 hr 43 min 46 sec) 
Heartbeat CPU 0 instructions: 79000000 cycles: 123868337 heartbeat IPC: 0.474617 cumulative IPC: 0.572402 (Simulation time: 1 hr 45 min 30 sec) 
Heartbeat CPU 0 instructions: 80000000 cycles: 125981009 heartbeat IPC: 0.473334 cumulative IPC: 0.570696 (Simulation time: 1 hr 47 min 15 sec) 
Heartbeat CPU 0 instructions: 81000000 cycles: 127886075 heartbeat IPC: 0.524916 cumulative IPC: 0.569995 (Simulation time: 1 hr 48 min 56 sec) 
Heartbeat CPU 0 instructions: 82000000 cycles: 129885979 heartbeat IPC: 0.500024 cumulative IPC: 0.56889 (Simulation time: 1 hr 50 min 37 sec) 
Heartbeat CPU 0 instructions: 83000000 cycles: 131994740 heartbeat IPC: 0.474212 cumulative IPC: 0.567338 (Simulation time: 1 hr 52 min 11 sec) 
Heartbeat CPU 0 instructions: 84000000 cycles: 134100943 heartbeat IPC: 0.474788 cumulative IPC: 0.565848 (Simulation time: 1 hr 53 min 46 sec) 
Heartbeat CPU 0 instructions: 85000001 cycles: 135683152 heartbeat IPC: 0.632028 cumulative IPC: 0.566639 (Simulation time: 1 hr 55 min 16 sec) 
Heartbeat CPU 0 instructions: 86000000 cycles: 137193728 heartbeat IPC: 0.661998 cumulative IPC: 0.567715 (Simulation time: 1 hr 56 min 39 sec) 
Heartbeat CPU 0 instructions: 87000003 cycles: 138703656 heartbeat IPC: 0.662285 cumulative IPC: 0.56877 (Simulation time: 1 hr 58 min 4 sec) 
Heartbeat CPU 0 instructions: 88000000 cycles: 140213648 heartbeat IPC: 0.662253 cumulative IPC: 0.569801 (Simulation time: 1 hr 59 min 26 sec) 
Heartbeat CPU 0 instructions: 89000001 cycles: 141723685 heartbeat IPC: 0.662236 cumulative IPC: 0.570809 (Simulation time: 2 hr 0 min 43 sec) 
Heartbeat CPU 0 instructions: 90000000 cycles: 143233805 heartbeat IPC: 0.662198 cumulative IPC: 0.571796 (Simulation time: 2 hr 2 min 9 sec) 
Heartbeat CPU 0 instructions: 91000001 cycles: 144743728 heartbeat IPC: 0.662286 cumulative IPC: 0.572762 (Simulation time: 2 hr 3 min 31 sec) 
Heartbeat CPU 0 instructions: 92000000 cycles: 146253836 heartbeat IPC: 0.662204 cumulative IPC: 0.573707 (Simulation time: 2 hr 4 min 52 sec) 
Heartbeat CPU 0 instructions: 93000002 cycles: 147763990 heartbeat IPC: 0.662185 cumulative IPC: 0.574632 (Simulation time: 2 hr 6 min 11 sec) 
Heartbeat CPU 0 instructions: 94000001 cycles: 149273910 heartbeat IPC: 0.662286 cumulative IPC: 0.575539 (Simulation time: 2 hr 7 min 32 sec) 
Heartbeat CPU 0 instructions: 95000000 cycles: 150783834 heartbeat IPC: 0.662284 cumulative IPC: 0.576427 (Simulation time: 2 hr 8 min 59 sec) 
Heartbeat CPU 0 instructions: 96000000 cycles: 152293938 heartbeat IPC: 0.662206 cumulative IPC: 0.577296 (Simulation time: 2 hr 10 min 25 sec) 
Heartbeat CPU 0 instructions: 97000002 cycles: 153738149 heartbeat IPC: 0.692421 cumulative IPC: 0.578402 (Simulation time: 2 hr 11 min 45 sec) 
Heartbeat CPU 0 instructions: 98000001 cycles: 154985743 heartbeat IPC: 0.801542 cumulative IPC: 0.580237 (Simulation time: 2 hr 13 min 7 sec) 
Heartbeat CPU 0 instructions: 99000000 cycles: 156495737 heartbeat IPC: 0.662254 cumulative IPC: 0.581046 (Simulation time: 2 hr 14 min 34 sec) 
Heartbeat CPU 0 instructions: 100000000 cycles: 158005658 heartbeat IPC: 0.662286 cumulative IPC: 0.581839 (Simulation time: 2 hr 15 min 53 sec) 
Heartbeat CPU 0 instructions: 101000000 cycles: 159515703 heartbeat IPC: 0.662232 cumulative IPC: 0.582616 (Simulation time: 2 hr 17 min 16 sec) 
Heartbeat CPU 0 instructions: 102000002 cycles: 161025626 heartbeat IPC: 0.662287 cumulative IPC: 0.583379 (Simulation time: 2 hr 18 min 35 sec) 
Heartbeat CPU 0 instructions: 103000001 cycles: 162530482 heartbeat IPC: 0.664515 cumulative IPC: 0.584146 (Simulation time: 2 hr 20 min 1 sec) 
Heartbeat CPU 0 instructions: 104000000 cycles: 164511586 heartbeat IPC: 0.504769 cumulative IPC: 0.58317 (Simulation time: 2 hr 21 min 34 sec) 
Heartbeat CPU 0 instructions: 105000000 cycles: 166738632 heartbeat IPC: 0.449025 cumulative IPC: 0.581342 (Simulation time: 2 hr 23 min 14 sec) 
Heartbeat CPU 0 instructions: 106000000 cycles: 168973390 heartbeat IPC: 0.447476 cumulative IPC: 0.579536 (Simulation time: 2 hr 24 min 49 sec) 
Heartbeat CPU 0 instructions: 107000000 cycles: 171205397 heartbeat IPC: 0.448027 cumulative IPC: 0.577788 (Simulation time: 2 hr 26 min 25 sec) 
Heartbeat CPU 0 instructions: 108000000 cycles: 173433893 heartbeat IPC: 0.448733 cumulative IPC: 0.576097 (Simulation time: 2 hr 27 min 59 sec) 
Heartbeat CPU 0 instructions: 109000000 cycles: 175668334 heartbeat IPC: 0.447539 cumulative IPC: 0.57443 (Simulation time: 2 hr 29 min 26 sec) 
Heartbeat CPU 0 instructions: 110000000 cycles: 177901606 heartbeat IPC: 0.447773 cumulative IPC: 0.57281 (Simulation time: 2 hr 30 min 47 sec) 
Finished CPU 0 instructions: 100000003 cycles: 174577923 cummulative IPC: 0.57281 (Simulation time: 2 hr 30 min 47 sec) 

ChampSim completed all CPUs

Region of Interest Statistics

CPU 0 cummulative IPC: 0.57281 instructions: 100000003 cycles: 174577923
LLC TOTAL     ACCESS:    4917133  HIT:     199402  MISS:    4717731
LLC LOAD      ACCESS:    1144944  HIT:      48080  MISS:    1096864
LLC RFO       ACCESS:         24  HIT:          8  MISS:         16
LLC PREFETCH  ACCESS:    2245467  HIT:      80373  MISS:    2165094
LLC WRITEBACK ACCESS:    1526698  HIT:      70941  MISS:    1455757
