
*** ChampSim Multicore Out-of-Order Simulator ***

Warmup Instructions: 10000000
Simulation Instructions: 100000000
Configuration: 2
Number of CPUs: 1
LLC sets: 2048
LLC ways: 16
Off-chip DRAM Channels: 1 Width: 64-bit Data Rate: 1600 MT/s

CPU 0 runs /datasets/cs240c-wi22-a00-public/data/Assignment2-gz/lbm_1004B.trace.gz
CPU 0 L1D next line prefetcher
CPU 0 L2C IP-based stride prefetcher
config 2, num_core 1, llc_sets 2048
Heartbeat CPU 0 instructions: 1000002 cycles: 391414 heartbeat IPC: 2.55484 cumulative IPC: 2.55484 (Simulation time: 0 hr 1 min 37 sec) 
Heartbeat CPU 0 instructions: 2000001 cycles: 782838 heartbeat IPC: 2.55477 cumulative IPC: 2.55481 (Simulation time: 0 hr 3 min 21 sec) 
Heartbeat CPU 0 instructions: 3000001 cycles: 1174187 heartbeat IPC: 2.55526 cumulative IPC: 2.55496 (Simulation time: 0 hr 5 min 8 sec) 
Heartbeat CPU 0 instructions: 4000000 cycles: 1570381 heartbeat IPC: 2.52401 cumulative IPC: 2.54715 (Simulation time: 0 hr 6 min 56 sec) 
Heartbeat CPU 0 instructions: 5000002 cycles: 1961799 heartbeat IPC: 2.55482 cumulative IPC: 2.54868 (Simulation time: 0 hr 8 min 41 sec) 
Heartbeat CPU 0 instructions: 6000002 cycles: 2353167 heartbeat IPC: 2.55514 cumulative IPC: 2.54976 (Simulation time: 0 hr 10 min 36 sec) 
Heartbeat CPU 0 instructions: 7000003 cycles: 2749275 heartbeat IPC: 2.52457 cumulative IPC: 2.54613 (Simulation time: 0 hr 12 min 19 sec) 
Heartbeat CPU 0 instructions: 8000000 cycles: 3140634 heartbeat IPC: 2.55519 cumulative IPC: 2.54726 (Simulation time: 0 hr 14 min 9 sec) 
Heartbeat CPU 0 instructions: 9000003 cycles: 3532081 heartbeat IPC: 2.55463 cumulative IPC: 2.54807 (Simulation time: 0 hr 16 min 0 sec) 
Heartbeat CPU 0 instructions: 10000000 cycles: 3923455 heartbeat IPC: 2.55509 cumulative IPC: 2.54877 (Simulation time: 0 hr 17 min 55 sec) 

Warmup complete CPU 0 instructions: 10000004 cycles: 3923456 (Simulation time: 0 hr 17 min 55 sec) 

Heartbeat CPU 0 instructions: 11000002 cycles: 5314584 heartbeat IPC: 0.718842 cumulative IPC: 0.71884 (Simulation time: 0 hr 20 min 14 sec) 
Heartbeat CPU 0 instructions: 12000000 cycles: 6582597 heartbeat IPC: 0.788634 cumulative IPC: 0.752121 (Simulation time: 0 hr 22 min 14 sec) 
Heartbeat CPU 0 instructions: 13000002 cycles: 7941975 heartbeat IPC: 0.735632 cumulative IPC: 0.746543 (Simulation time: 0 hr 23 min 57 sec) 
Heartbeat CPU 0 instructions: 14000003 cycles: 9358671 heartbeat IPC: 0.705868 cumulative IPC: 0.735941 (Simulation time: 0 hr 25 min 33 sec) 
Heartbeat CPU 0 instructions: 15000003 cycles: 10611478 heartbeat IPC: 0.798208 cumulative IPC: 0.747605 (Simulation time: 0 hr 27 min 1 sec) 
Heartbeat CPU 0 instructions: 16000000 cycles: 12031657 heartbeat IPC: 0.704134 cumulative IPC: 0.739991 (Simulation time: 0 hr 28 min 28 sec) 
Heartbeat CPU 0 instructions: 17000000 cycles: 13513271 heartbeat IPC: 0.67494 cumulative IPC: 0.729941 (Simulation time: 0 hr 29 min 57 sec) 
Heartbeat CPU 0 instructions: 18000002 cycles: 14838512 heartbeat IPC: 0.754581 cumulative IPC: 0.732932 (Simulation time: 0 hr 31 min 23 sec) 
Heartbeat CPU 0 instructions: 19000002 cycles: 16171707 heartbeat IPC: 0.750078 cumulative IPC: 0.734799 (Simulation time: 0 hr 32 min 49 sec) 
Heartbeat CPU 0 instructions: 20000000 cycles: 17602581 heartbeat IPC: 0.698872 cumulative IPC: 0.731041 (Simulation time: 0 hr 34 min 19 sec) 
Heartbeat CPU 0 instructions: 21000003 cycles: 19069622 heartbeat IPC: 0.681646 cumulative IPC: 0.726256 (Simulation time: 0 hr 35 min 56 sec) 
Heartbeat CPU 0 instructions: 22000002 cycles: 20225440 heartbeat IPC: 0.865187 cumulative IPC: 0.736107 (Simulation time: 0 hr 37 min 21 sec) 
Heartbeat CPU 0 instructions: 23000001 cycles: 21639715 heartbeat IPC: 0.707075 cumulative IPC: 0.733789 (Simulation time: 0 hr 38 min 46 sec) 
Heartbeat CPU 0 instructions: 24000000 cycles: 23133521 heartbeat IPC: 0.66943 cumulative IPC: 0.728784 (Simulation time: 0 hr 40 min 29 sec) 
Heartbeat CPU 0 instructions: 25000003 cycles: 24380519 heartbeat IPC: 0.801928 cumulative IPC: 0.733243 (Simulation time: 0 hr 42 min 5 sec) 
Heartbeat CPU 0 instructions: 26000003 cycles: 25684857 heartbeat IPC: 0.766672 cumulative IPC: 0.735247 (Simulation time: 0 hr 43 min 46 sec) 
Heartbeat CPU 0 instructions: 27000001 cycles: 27144524 heartbeat IPC: 0.685086 cumulative IPC: 0.732094 (Simulation time: 0 hr 45 min 26 sec) 
Heartbeat CPU 0 instructions: 28000000 cycles: 28599430 heartbeat IPC: 0.687329 cumulative IPC: 0.729454 (Simulation time: 0 hr 46 min 55 sec) 
Heartbeat CPU 0 instructions: 29000002 cycles: 29747327 heartbeat IPC: 0.87116 cumulative IPC: 0.735753 (Simulation time: 0 hr 48 min 22 sec) 
Heartbeat CPU 0 instructions: 30000003 cycles: 31180444 heartbeat IPC: 0.69778 cumulative IPC: 0.733757 (Simulation time: 0 hr 49 min 52 sec) 
Heartbeat CPU 0 instructions: 31000001 cycles: 32690268 heartbeat IPC: 0.662328 cumulative IPC: 0.730008 (Simulation time: 0 hr 51 min 27 sec) 
Heartbeat CPU 0 instructions: 32000000 cycles: 33901892 heartbeat IPC: 0.825338 cumulative IPC: 0.733861 (Simulation time: 0 hr 52 min 53 sec) 
Heartbeat CPU 0 instructions: 33000000 cycles: 35178037 heartbeat IPC: 0.78361 cumulative IPC: 0.735892 (Simulation time: 0 hr 54 min 21 sec) 
Heartbeat CPU 0 instructions: 34000002 cycles: 36706286 heartbeat IPC: 0.654345 cumulative IPC: 0.73209 (Simulation time: 0 hr 55 min 54 sec) 
Heartbeat CPU 0 instructions: 35000001 cycles: 38082744 heartbeat IPC: 0.726502 cumulative IPC: 0.731865 (Simulation time: 0 hr 57 min 27 sec) 
Heartbeat CPU 0 instructions: 36000000 cycles: 39243574 heartbeat IPC: 0.861452 cumulative IPC: 0.736124 (Simulation time: 0 hr 58 min 49 sec) 
Heartbeat CPU 0 instructions: 37000002 cycles: 40664096 heartbeat IPC: 0.703968 cumulative IPC: 0.734881 (Simulation time: 1 hr 0 min 24 sec) 
Heartbeat CPU 0 instructions: 38000000 cycles: 42162439 heartbeat IPC: 0.667403 cumulative IPC: 0.732237 (Simulation time: 1 hr 1 min 57 sec) 
Heartbeat CPU 0 instructions: 39000003 cycles: 43415140 heartbeat IPC: 0.798277 cumulative IPC: 0.734332 (Simulation time: 1 hr 3 min 20 sec) 
Heartbeat CPU 0 instructions: 40000000 cycles: 44688873 heartbeat IPC: 0.785092 cumulative IPC: 0.735918 (Simulation time: 1 hr 4 min 48 sec) 
Heartbeat CPU 0 instructions: 41000002 cycles: 46197313 heartbeat IPC: 0.662938 cumulative IPC: 0.733314 (Simulation time: 1 hr 6 min 19 sec) 
Heartbeat CPU 0 instructions: 42000000 cycles: 47577200 heartbeat IPC: 0.724696 cumulative IPC: 0.733041 (Simulation time: 1 hr 7 min 48 sec) 
Heartbeat CPU 0 instructions: 43000002 cycles: 48749938 heartbeat IPC: 0.852707 cumulative IPC: 0.736172 (Simulation time: 1 hr 9 min 15 sec) 
Heartbeat CPU 0 instructions: 44000000 cycles: 50246850 heartbeat IPC: 0.668041 cumulative IPC: 0.73397 (Simulation time: 1 hr 10 min 50 sec) 
Heartbeat CPU 0 instructions: 45000000 cycles: 51703077 heartbeat IPC: 0.686706 cumulative IPC: 0.73253 (Simulation time: 1 hr 12 min 26 sec) 
Heartbeat CPU 0 instructions: 46000003 cycles: 52963777 heartbeat IPC: 0.793212 cumulative IPC: 0.73409 (Simulation time: 1 hr 13 min 54 sec) 
Heartbeat CPU 0 instructions: 47000002 cycles: 54249966 heartbeat IPC: 0.77749 cumulative IPC: 0.735199 (Simulation time: 1 hr 15 min 22 sec) 
Heartbeat CPU 0 instructions: 48000000 cycles: 55782984 heartbeat IPC: 0.652307 cumulative IPC: 0.732749 (Simulation time: 1 hr 17 min 5 sec) 
Heartbeat CPU 0 instructions: 49000000 cycles: 57118817 heartbeat IPC: 0.748597 cumulative IPC: 0.733147 (Simulation time: 1 hr 18 min 48 sec) 
Heartbeat CPU 0 instructions: 50000003 cycles: 58290249 heartbeat IPC: 0.853659 cumulative IPC: 0.735743 (Simulation time: 1 hr 20 min 27 sec) 
Heartbeat CPU 0 instructions: 51000001 cycles: 59774462 heartbeat IPC: 0.673756 cumulative IPC: 0.734096 (Simulation time: 1 hr 22 min 10 sec) 
Heartbeat CPU 0 instructions: 52000000 cycles: 61209468 heartbeat IPC: 0.69686 cumulative IPC: 0.733163 (Simulation time: 1 hr 23 min 55 sec) 
Heartbeat CPU 0 instructions: 53000002 cycles: 62434011 heartbeat IPC: 0.816633 cumulative IPC: 0.73491 (Simulation time: 1 hr 25 min 33 sec) 
Heartbeat CPU 0 instructions: 54000002 cycles: 63771942 heartbeat IPC: 0.747423 cumulative IPC: 0.73519 (Simulation time: 1 hr 27 min 8 sec) 
Heartbeat CPU 0 instructions: 55000001 cycles: 65290464 heartbeat IPC: 0.658534 cumulative IPC: 0.733293 (Simulation time: 1 hr 28 min 50 sec) 
Heartbeat CPU 0 instructions: 56000000 cycles: 66664102 heartbeat IPC: 0.727993 cumulative IPC: 0.733177 (Simulation time: 1 hr 30 min 30 sec) 
Heartbeat CPU 0 instructions: 57000003 cycles: 67858697 heartbeat IPC: 0.837106 cumulative IPC: 0.735119 (Simulation time: 1 hr 31 min 59 sec) 
Heartbeat CPU 0 instructions: 58000003 cycles: 69351024 heartbeat IPC: 0.670094 cumulative IPC: 0.733636 (Simulation time: 1 hr 33 min 38 sec) 
Heartbeat CPU 0 instructions: 59000002 cycles: 70820252 heartbeat IPC: 0.680629 cumulative IPC: 0.732472 (Simulation time: 1 hr 35 min 13 sec) 
Heartbeat CPU 0 instructions: 60000000 cycles: 72016494 heartbeat IPC: 0.83595 cumulative IPC: 0.734289 (Simulation time: 1 hr 36 min 46 sec) 
Heartbeat CPU 0 instructions: 61000003 cycles: 73391086 heartbeat IPC: 0.727491 cumulative IPC: 0.734155 (Simulation time: 1 hr 38 min 32 sec) 
Heartbeat CPU 0 instructions: 62000001 cycles: 74831481 heartbeat IPC: 0.694253 cumulative IPC: 0.733344 (Simulation time: 1 hr 40 min 15 sec) 
Heartbeat CPU 0 instructions: 63000001 cycles: 76195715 heartbeat IPC: 0.733012 cumulative IPC: 0.733338 (Simulation time: 1 hr 41 min 51 sec) 
Heartbeat CPU 0 instructions: 64000000 cycles: 77419117 heartbeat IPC: 0.817392 cumulative IPC: 0.734737 (Simulation time: 1 hr 43 min 28 sec) 
Heartbeat CPU 0 instructions: 65000000 cycles: 78892127 heartbeat IPC: 0.678882 cumulative IPC: 0.73364 (Simulation time: 1 hr 45 min 6 sec) 
Heartbeat CPU 0 instructions: 66000000 cycles: 80350878 heartbeat IPC: 0.685518 cumulative IPC: 0.732721 (Simulation time: 1 hr 46 min 46 sec) 
Heartbeat CPU 0 instructions: 67000000 cycles: 81570889 heartbeat IPC: 0.819665 cumulative IPC: 0.734087 (Simulation time: 1 hr 48 min 19 sec) 
Heartbeat CPU 0 instructions: 68000000 cycles: 82893392 heartbeat IPC: 0.756142 cumulative IPC: 0.734457 (Simulation time: 1 hr 49 min 58 sec) 
Heartbeat CPU 0 instructions: 69000000 cycles: 84349748 heartbeat IPC: 0.686645 cumulative IPC: 0.733591 (Simulation time: 1 hr 51 min 32 sec) 
Heartbeat CPU 0 instructions: 70000000 cycles: 85707035 heartbeat IPC: 0.736764 cumulative IPC: 0.733644 (Simulation time: 1 hr 52 min 59 sec) 
Heartbeat CPU 0 instructions: 71000002 cycles: 86942067 heartbeat IPC: 0.809697 cumulative IPC: 0.734775 (Simulation time: 1 hr 54 min 24 sec) 
Heartbeat CPU 0 instructions: 72000000 cycles: 89263664 heartbeat IPC: 0.430737 cumulative IPC: 0.726504 (Simulation time: 1 hr 56 min 22 sec) 
Heartbeat CPU 0 instructions: 73000002 cycles: 92108567 heartbeat IPC: 0.351507 cumulative IPC: 0.714406 (Simulation time: 1 hr 58 min 42 sec) 
Heartbeat CPU 0 instructions: 74000002 cycles: 98135539 heartbeat IPC: 0.165921 cumulative IPC: 0.679318 (Simulation time: 2 hr 2 min 18 sec) 
Heartbeat CPU 0 instructions: 75000003 cycles: 100468555 heartbeat IPC: 0.42863 cumulative IPC: 0.67326 (Simulation time: 2 hr 4 min 27 sec) 
Heartbeat CPU 0 instructions: 76000000 cycles: 102452877 heartbeat IPC: 0.503949 cumulative IPC: 0.669851 (Simulation time: 2 hr 6 min 15 sec) 
Heartbeat CPU 0 instructions: 77000000 cycles: 103911124 heartbeat IPC: 0.685755 cumulative IPC: 0.670083 (Simulation time: 2 hr 7 min 46 sec) 
Heartbeat CPU 0 instructions: 78000002 cycles: 105347014 heartbeat IPC: 0.696434 cumulative IPC: 0.670456 (Simulation time: 2 hr 9 min 19 sec) 
Heartbeat CPU 0 instructions: 79000001 cycles: 106829685 heartbeat IPC: 0.674458 cumulative IPC: 0.670513 (Simulation time: 2 hr 10 min 48 sec) 
Heartbeat CPU 0 instructions: 80000000 cycles: 108157267 heartbeat IPC: 0.753248 cumulative IPC: 0.671567 (Simulation time: 2 hr 12 min 15 sec) 
Heartbeat CPU 0 instructions: 81000001 cycles: 109570579 heartbeat IPC: 0.707559 cumulative IPC: 0.672049 (Simulation time: 2 hr 13 min 49 sec) 
Heartbeat CPU 0 instructions: 82000002 cycles: 111020880 heartbeat IPC: 0.689513 cumulative IPC: 0.672285 (Simulation time: 2 hr 15 min 23 sec) 
Heartbeat CPU 0 instructions: 83000003 cycles: 112352320 heartbeat IPC: 0.751067 cumulative IPC: 0.673252 (Simulation time: 2 hr 16 min 59 sec) 
Heartbeat CPU 0 instructions: 84000000 cycles: 113660125 heartbeat IPC: 0.764638 cumulative IPC: 0.674342 (Simulation time: 2 hr 18 min 32 sec) 
Heartbeat CPU 0 instructions: 85000000 cycles: 115071858 heartbeat IPC: 0.708349 cumulative IPC: 0.674774 (Simulation time: 2 hr 20 min 13 sec) 
Heartbeat CPU 0 instructions: 86000000 cycles: 116527080 heartbeat IPC: 0.68718 cumulative IPC: 0.674934 (Simulation time: 2 hr 22 min 6 sec) 
Heartbeat CPU 0 instructions: 87000002 cycles: 117761007 heartbeat IPC: 0.810422 cumulative IPC: 0.676402 (Simulation time: 2 hr 24 min 3 sec) 
Heartbeat CPU 0 instructions: 88000000 cycles: 119113160 heartbeat IPC: 0.73956 cumulative IPC: 0.677144 (Simulation time: 2 hr 25 min 57 sec) 
Heartbeat CPU 0 instructions: 89000003 cycles: 120558838 heartbeat IPC: 0.691719 cumulative IPC: 0.677324 (Simulation time: 2 hr 27 min 53 sec) 
Heartbeat CPU 0 instructions: 90000002 cycles: 121872824 heartbeat IPC: 0.761042 cumulative IPC: 0.678257 (Simulation time: 2 hr 29 min 39 sec) 
Heartbeat CPU 0 instructions: 91000001 cycles: 123198865 heartbeat IPC: 0.754124 cumulative IPC: 0.679101 (Simulation time: 2 hr 31 min 9 sec) 
Heartbeat CPU 0 instructions: 92000000 cycles: 124644359 heartbeat IPC: 0.691804 cumulative IPC: 0.679253 (Simulation time: 2 hr 32 min 51 sec) 
Heartbeat CPU 0 instructions: 93000003 cycles: 126108795 heartbeat IPC: 0.682859 cumulative IPC: 0.679296 (Simulation time: 2 hr 34 min 29 sec) 
Heartbeat CPU 0 instructions: 94000003 cycles: 127367723 heartbeat IPC: 0.794327 cumulative IPC: 0.680469 (Simulation time: 2 hr 35 min 57 sec) 
Heartbeat CPU 0 instructions: 95000000 cycles: 128697226 heartbeat IPC: 0.752159 cumulative IPC: 0.681233 (Simulation time: 2 hr 37 min 32 sec) 
Heartbeat CPU 0 instructions: 96000000 cycles: 130222214 heartbeat IPC: 0.655743 cumulative IPC: 0.680925 (Simulation time: 2 hr 39 min 9 sec) 
Heartbeat CPU 0 instructions: 97000002 cycles: 131482330 heartbeat IPC: 0.793579 cumulative IPC: 0.682038 (Simulation time: 2 hr 40 min 21 sec) 
Heartbeat CPU 0 instructions: 98000001 cycles: 132773211 heartbeat IPC: 0.774664 cumulative IPC: 0.682966 (Simulation time: 2 hr 41 min 29 sec) 
Heartbeat CPU 0 instructions: 99000000 cycles: 134208383 heartbeat IPC: 0.69678 cumulative IPC: 0.683118 (Simulation time: 2 hr 42 min 33 sec) 
Heartbeat CPU 0 instructions: 100000000 cycles: 135684192 heartbeat IPC: 0.677594 cumulative IPC: 0.683056 (Simulation time: 2 hr 43 min 43 sec) 
Heartbeat CPU 0 instructions: 101000000 cycles: 136926122 heartbeat IPC: 0.805198 cumulative IPC: 0.684197 (Simulation time: 2 hr 44 min 45 sec) 
Heartbeat CPU 0 instructions: 102000000 cycles: 138289163 heartbeat IPC: 0.733654 cumulative IPC: 0.684698 (Simulation time: 2 hr 45 min 43 sec) 
Heartbeat CPU 0 instructions: 103000001 cycles: 139825145 heartbeat IPC: 0.65105 cumulative IPC: 0.684318 (Simulation time: 2 hr 46 min 35 sec) 
Heartbeat CPU 0 instructions: 104000000 cycles: 141107743 heartbeat IPC: 0.779667 cumulative IPC: 0.68521 (Simulation time: 2 hr 47 min 16 sec) 
Heartbeat CPU 0 instructions: 105000001 cycles: 142347037 heartbeat IPC: 0.806912 cumulative IPC: 0.686299 (Simulation time: 2 hr 47 min 54 sec) 
Heartbeat CPU 0 instructions: 106000000 cycles: 143756092 heartbeat IPC: 0.709695 cumulative IPC: 0.686535 (Simulation time: 2 hr 48 min 31 sec) 
Heartbeat CPU 0 instructions: 107000000 cycles: 145237294 heartbeat IPC: 0.675127 cumulative IPC: 0.686415 (Simulation time: 2 hr 49 min 8 sec) 
Heartbeat CPU 0 instructions: 108000000 cycles: 146480382 heartbeat IPC: 0.804448 cumulative IPC: 0.687445 (Simulation time: 2 hr 49 min 42 sec) 
Heartbeat CPU 0 instructions: 109000003 cycles: 147860595 heartbeat IPC: 0.724528 cumulative IPC: 0.6878 (Simulation time: 2 hr 50 min 11 sec) 
Heartbeat CPU 0 instructions: 110000001 cycles: 149376492 heartbeat IPC: 0.659674 cumulative IPC: 0.687507 (Simulation time: 2 hr 50 min 41 sec) 
Finished CPU 0 instructions: 100000001 cycles: 145453037 cummulative IPC: 0.687507 (Simulation time: 2 hr 50 min 41 sec) 

ChampSim completed all CPUs

Region of Interest Statistics

CPU 0 cummulative IPC: 0.687507 instructions: 100000001 cycles: 145453037
LLC TOTAL     ACCESS:    5791236  HIT:    1399598  MISS:    4391638
LLC LOAD      ACCESS:     415264  HIT:         15  MISS:     415249
LLC RFO       ACCESS:    2473095  HIT:     531866  MISS:    1941229
LLC PREFETCH  ACCESS:     429761  HIT:          2  MISS:     429759
LLC WRITEBACK ACCESS:    2473116  HIT:     867715  MISS:    1605401
