
*** ChampSim Multicore Out-of-Order Simulator ***

Warmup Instructions: 10000000
Simulation Instructions: 100000000
Configuration: 2
Number of CPUs: 1
LLC sets: 2048
LLC ways: 16
Off-chip DRAM Channels: 1 Width: 64-bit Data Rate: 1600 MT/s

CPU 0 runs /datasets/cs240c-wi22-a00-public/data/Assignment2-gz/astar_313B.trace.gz
CPU 0 L1D next line prefetcher
CPU 0 L2C IP-based stride prefetcher
config 2, num_core 1, llc_sets 2048
Heartbeat CPU 0 instructions: 1000001 cycles: 675908 heartbeat IPC: 1.47949 cumulative IPC: 1.47949 (Simulation time: 0 hr 1 min 47 sec) 
Heartbeat CPU 0 instructions: 2000003 cycles: 1263322 heartbeat IPC: 1.70238 cumulative IPC: 1.58313 (Simulation time: 0 hr 3 min 39 sec) 
Heartbeat CPU 0 instructions: 3000003 cycles: 1937728 heartbeat IPC: 1.48279 cumulative IPC: 1.54821 (Simulation time: 0 hr 5 min 30 sec) 
Heartbeat CPU 0 instructions: 4000000 cycles: 2611597 heartbeat IPC: 1.48396 cumulative IPC: 1.53163 (Simulation time: 0 hr 7 min 30 sec) 
Heartbeat CPU 0 instructions: 5000002 cycles: 3285847 heartbeat IPC: 1.48313 cumulative IPC: 1.52168 (Simulation time: 0 hr 9 min 23 sec) 
Heartbeat CPU 0 instructions: 6000001 cycles: 3872477 heartbeat IPC: 1.70465 cumulative IPC: 1.5494 (Simulation time: 0 hr 11 min 8 sec) 
Heartbeat CPU 0 instructions: 7000001 cycles: 4441304 heartbeat IPC: 1.758 cumulative IPC: 1.57611 (Simulation time: 0 hr 12 min 53 sec) 
Heartbeat CPU 0 instructions: 8000000 cycles: 4992999 heartbeat IPC: 1.81259 cumulative IPC: 1.60224 (Simulation time: 0 hr 14 min 35 sec) 
Heartbeat CPU 0 instructions: 9000001 cycles: 5554688 heartbeat IPC: 1.78035 cumulative IPC: 1.62025 (Simulation time: 0 hr 16 min 16 sec) 
Heartbeat CPU 0 instructions: 10000002 cycles: 6229686 heartbeat IPC: 1.48149 cumulative IPC: 1.60522 (Simulation time: 0 hr 18 min 6 sec) 

Warmup complete CPU 0 instructions: 10000002 cycles: 6229686 (Simulation time: 0 hr 18 min 6 sec) 

Heartbeat CPU 0 instructions: 11000000 cycles: 12621035 heartbeat IPC: 0.156461 cumulative IPC: 0.156461 (Simulation time: 0 hr 19 min 52 sec) 
Heartbeat CPU 0 instructions: 12000000 cycles: 19350097 heartbeat IPC: 0.148609 cumulative IPC: 0.152434 (Simulation time: 0 hr 21 min 49 sec) 
Heartbeat CPU 0 instructions: 13000003 cycles: 27733881 heartbeat IPC: 0.119278 cumulative IPC: 0.139508 (Simulation time: 0 hr 23 min 54 sec) 
Heartbeat CPU 0 instructions: 14000002 cycles: 33753131 heartbeat IPC: 0.166133 cumulative IPC: 0.145331 (Simulation time: 0 hr 25 min 44 sec) 
Heartbeat CPU 0 instructions: 15000000 cycles: 39932485 heartbeat IPC: 0.161829 cumulative IPC: 0.148356 (Simulation time: 0 hr 27 min 33 sec) 
Heartbeat CPU 0 instructions: 16000000 cycles: 45867684 heartbeat IPC: 0.168486 cumulative IPC: 0.15137 (Simulation time: 0 hr 29 min 22 sec) 
Heartbeat CPU 0 instructions: 17000001 cycles: 51888876 heartbeat IPC: 0.16608 cumulative IPC: 0.15331 (Simulation time: 0 hr 31 min 20 sec) 
Heartbeat CPU 0 instructions: 18000000 cycles: 60590056 heartbeat IPC: 0.114927 cumulative IPC: 0.147166 (Simulation time: 0 hr 33 min 21 sec) 
Heartbeat CPU 0 instructions: 19000000 cycles: 66460684 heartbeat IPC: 0.17034 cumulative IPC: 0.149425 (Simulation time: 0 hr 35 min 9 sec) 
Heartbeat CPU 0 instructions: 20000000 cycles: 72713029 heartbeat IPC: 0.15994 cumulative IPC: 0.150414 (Simulation time: 0 hr 37 min 4 sec) 
Heartbeat CPU 0 instructions: 21000002 cycles: 80999576 heartbeat IPC: 0.120678 cumulative IPC: 0.147118 (Simulation time: 0 hr 39 min 2 sec) 
Heartbeat CPU 0 instructions: 22000002 cycles: 87919266 heartbeat IPC: 0.144515 cumulative IPC: 0.146898 (Simulation time: 0 hr 41 min 3 sec) 
Heartbeat CPU 0 instructions: 23000002 cycles: 93569676 heartbeat IPC: 0.176978 cumulative IPC: 0.148844 (Simulation time: 0 hr 43 min 1 sec) 
Heartbeat CPU 0 instructions: 24000000 cycles: 100147281 heartbeat IPC: 0.152031 cumulative IPC: 0.149067 (Simulation time: 0 hr 44 min 54 sec) 
Heartbeat CPU 0 instructions: 25000001 cycles: 107969084 heartbeat IPC: 0.127848 cumulative IPC: 0.147436 (Simulation time: 0 hr 47 min 1 sec) 
Heartbeat CPU 0 instructions: 26000002 cycles: 114310921 heartbeat IPC: 0.157683 cumulative IPC: 0.148037 (Simulation time: 0 hr 48 min 49 sec) 
Heartbeat CPU 0 instructions: 27000003 cycles: 123449997 heartbeat IPC: 0.10942 cumulative IPC: 0.145026 (Simulation time: 0 hr 50 min 54 sec) 
Heartbeat CPU 0 instructions: 28000000 cycles: 129245645 heartbeat IPC: 0.172543 cumulative IPC: 0.146322 (Simulation time: 0 hr 52 min 43 sec) 
Heartbeat CPU 0 instructions: 29000001 cycles: 137876367 heartbeat IPC: 0.115865 cumulative IPC: 0.144326 (Simulation time: 0 hr 54 min 50 sec) 
Heartbeat CPU 0 instructions: 30000001 cycles: 143821131 heartbeat IPC: 0.168215 cumulative IPC: 0.145358 (Simulation time: 0 hr 56 min 39 sec) 
Heartbeat CPU 0 instructions: 31000002 cycles: 149778882 heartbeat IPC: 0.167849 cumulative IPC: 0.146291 (Simulation time: 0 hr 58 min 36 sec) 
Heartbeat CPU 0 instructions: 32000000 cycles: 155393895 heartbeat IPC: 0.178094 cumulative IPC: 0.147488 (Simulation time: 1 hr 0 min 31 sec) 
Heartbeat CPU 0 instructions: 33000000 cycles: 161003585 heartbeat IPC: 0.178263 cumulative IPC: 0.148604 (Simulation time: 1 hr 2 min 20 sec) 
Heartbeat CPU 0 instructions: 34000000 cycles: 169490961 heartbeat IPC: 0.117822 cumulative IPC: 0.147004 (Simulation time: 1 hr 4 min 26 sec) 
Heartbeat CPU 0 instructions: 35000000 cycles: 175321126 heartbeat IPC: 0.171522 cumulative IPC: 0.147849 (Simulation time: 1 hr 6 min 13 sec) 
Heartbeat CPU 0 instructions: 36000000 cycles: 181454775 heartbeat IPC: 0.163035 cumulative IPC: 0.148381 (Simulation time: 1 hr 8 min 3 sec) 
Heartbeat CPU 0 instructions: 37000002 cycles: 190126721 heartbeat IPC: 0.115315 cumulative IPC: 0.146821 (Simulation time: 1 hr 10 min 5 sec) 
Heartbeat CPU 0 instructions: 38000000 cycles: 195968533 heartbeat IPC: 0.171179 cumulative IPC: 0.147571 (Simulation time: 1 hr 11 min 53 sec) 
Heartbeat CPU 0 instructions: 39000001 cycles: 204493777 heartbeat IPC: 0.117299 cumulative IPC: 0.14627 (Simulation time: 1 hr 14 min 5 sec) 
Heartbeat CPU 0 instructions: 40000000 cycles: 212901305 heartbeat IPC: 0.118941 cumulative IPC: 0.145158 (Simulation time: 1 hr 16 min 9 sec) 
Heartbeat CPU 0 instructions: 41000001 cycles: 218732036 heartbeat IPC: 0.171505 cumulative IPC: 0.145881 (Simulation time: 1 hr 17 min 54 sec) 
Heartbeat CPU 0 instructions: 42000003 cycles: 225683752 heartbeat IPC: 0.14385 cumulative IPC: 0.145816 (Simulation time: 1 hr 19 min 40 sec) 
Heartbeat CPU 0 instructions: 43000002 cycles: 234919637 heartbeat IPC: 0.108273 cumulative IPC: 0.1443 (Simulation time: 1 hr 21 min 44 sec) 
Heartbeat CPU 0 instructions: 44000000 cycles: 240347149 heartbeat IPC: 0.184246 cumulative IPC: 0.145226 (Simulation time: 1 hr 23 min 30 sec) 
Heartbeat CPU 0 instructions: 45000000 cycles: 246426087 heartbeat IPC: 0.164502 cumulative IPC: 0.145714 (Simulation time: 1 hr 25 min 33 sec) 
Heartbeat CPU 0 instructions: 46000002 cycles: 252776495 heartbeat IPC: 0.157471 cumulative IPC: 0.146017 (Simulation time: 1 hr 27 min 37 sec) 
Heartbeat CPU 0 instructions: 47000000 cycles: 259266510 heartbeat IPC: 0.154083 cumulative IPC: 0.146224 (Simulation time: 1 hr 29 min 58 sec) 
Heartbeat CPU 0 instructions: 48000000 cycles: 267633359 heartbeat IPC: 0.119519 cumulative IPC: 0.145369 (Simulation time: 1 hr 32 min 29 sec) 
Heartbeat CPU 0 instructions: 49000000 cycles: 273067166 heartbeat IPC: 0.184033 cumulative IPC: 0.146156 (Simulation time: 1 hr 34 min 31 sec) 
Heartbeat CPU 0 instructions: 50000000 cycles: 278894867 heartbeat IPC: 0.171594 cumulative IPC: 0.1467 (Simulation time: 1 hr 36 min 35 sec) 
Heartbeat CPU 0 instructions: 51000000 cycles: 285619282 heartbeat IPC: 0.148712 cumulative IPC: 0.146748 (Simulation time: 1 hr 38 min 41 sec) 
Heartbeat CPU 0 instructions: 52000000 cycles: 293411718 heartbeat IPC: 0.12833 cumulative IPC: 0.146249 (Simulation time: 1 hr 40 min 57 sec) 
Heartbeat CPU 0 instructions: 53000000 cycles: 299641628 heartbeat IPC: 0.160516 cumulative IPC: 0.146552 (Simulation time: 1 hr 42 min 57 sec) 
Heartbeat CPU 0 instructions: 54000000 cycles: 307120044 heartbeat IPC: 0.133718 cumulative IPC: 0.146233 (Simulation time: 1 hr 45 min 6 sec) 
Heartbeat CPU 0 instructions: 55000001 cycles: 315167818 heartbeat IPC: 0.124258 cumulative IPC: 0.14566 (Simulation time: 1 hr 47 min 21 sec) 
Heartbeat CPU 0 instructions: 56000000 cycles: 324900212 heartbeat IPC: 0.10275 cumulative IPC: 0.14435 (Simulation time: 1 hr 49 min 45 sec) 
Heartbeat CPU 0 instructions: 57000000 cycles: 330685580 heartbeat IPC: 0.17285 cumulative IPC: 0.144858 (Simulation time: 1 hr 51 min 44 sec) 
Heartbeat CPU 0 instructions: 58000001 cycles: 336961777 heartbeat IPC: 0.159332 cumulative IPC: 0.145133 (Simulation time: 1 hr 53 min 35 sec) 
Heartbeat CPU 0 instructions: 59000002 cycles: 345215245 heartbeat IPC: 0.121161 cumulative IPC: 0.144549 (Simulation time: 1 hr 55 min 37 sec) 
Heartbeat CPU 0 instructions: 60000000 cycles: 352446044 heartbeat IPC: 0.138297 cumulative IPC: 0.144418 (Simulation time: 1 hr 57 min 38 sec) 
Heartbeat CPU 0 instructions: 61000001 cycles: 358434566 heartbeat IPC: 0.166986 cumulative IPC: 0.144802 (Simulation time: 1 hr 59 min 25 sec) 
Heartbeat CPU 0 instructions: 62000001 cycles: 364502163 heartbeat IPC: 0.16481 cumulative IPC: 0.145141 (Simulation time: 2 hr 1 min 10 sec) 
Heartbeat CPU 0 instructions: 63000000 cycles: 370840273 heartbeat IPC: 0.157776 cumulative IPC: 0.145361 (Simulation time: 2 hr 3 min 2 sec) 
Heartbeat CPU 0 instructions: 64000000 cycles: 379347450 heartbeat IPC: 0.117548 cumulative IPC: 0.144726 (Simulation time: 2 hr 5 min 3 sec) 
Heartbeat CPU 0 instructions: 65000000 cycles: 385858692 heartbeat IPC: 0.153581 cumulative IPC: 0.144878 (Simulation time: 2 hr 7 min 1 sec) 
Heartbeat CPU 0 instructions: 66000001 cycles: 391988466 heartbeat IPC: 0.163138 cumulative IPC: 0.145168 (Simulation time: 2 hr 8 min 55 sec) 
Heartbeat CPU 0 instructions: 67000000 cycles: 398680022 heartbeat IPC: 0.149442 cumulative IPC: 0.145241 (Simulation time: 2 hr 10 min 48 sec) 
Heartbeat CPU 0 instructions: 68000000 cycles: 405587080 heartbeat IPC: 0.144779 cumulative IPC: 0.145233 (Simulation time: 2 hr 12 min 43 sec) 
Heartbeat CPU 0 instructions: 69000000 cycles: 416948343 heartbeat IPC: 0.0880184 cumulative IPC: 0.143651 (Simulation time: 2 hr 15 min 6 sec) 
Heartbeat CPU 0 instructions: 70000000 cycles: 423316916 heartbeat IPC: 0.157021 cumulative IPC: 0.143855 (Simulation time: 2 hr 17 min 0 sec) 
Heartbeat CPU 0 instructions: 71000002 cycles: 429401263 heartbeat IPC: 0.164356 cumulative IPC: 0.14415 (Simulation time: 2 hr 18 min 45 sec) 
Heartbeat CPU 0 instructions: 72000000 cycles: 435927895 heartbeat IPC: 0.153218 cumulative IPC: 0.144287 (Simulation time: 2 hr 20 min 39 sec) 
Heartbeat CPU 0 instructions: 73000003 cycles: 442830204 heartbeat IPC: 0.144879 cumulative IPC: 0.144297 (Simulation time: 2 hr 22 min 25 sec) 
Heartbeat CPU 0 instructions: 74000001 cycles: 451520091 heartbeat IPC: 0.115076 cumulative IPC: 0.143726 (Simulation time: 2 hr 24 min 23 sec) 
Heartbeat CPU 0 instructions: 75000000 cycles: 458304522 heartbeat IPC: 0.147396 cumulative IPC: 0.143781 (Simulation time: 2 hr 26 min 17 sec) 
Heartbeat CPU 0 instructions: 76000000 cycles: 463993002 heartbeat IPC: 0.175794 cumulative IPC: 0.144179 (Simulation time: 2 hr 27 min 58 sec) 
Heartbeat CPU 0 instructions: 77000000 cycles: 469743397 heartbeat IPC: 0.173901 cumulative IPC: 0.144548 (Simulation time: 2 hr 29 min 29 sec) 
Heartbeat CPU 0 instructions: 78000001 cycles: 475616998 heartbeat IPC: 0.170253 cumulative IPC: 0.14487 (Simulation time: 2 hr 31 min 4 sec) 
Heartbeat CPU 0 instructions: 79000000 cycles: 484125135 heartbeat IPC: 0.117534 cumulative IPC: 0.144383 (Simulation time: 2 hr 32 min 44 sec) 
Heartbeat CPU 0 instructions: 80000000 cycles: 489871949 heartbeat IPC: 0.174009 cumulative IPC: 0.144735 (Simulation time: 2 hr 34 min 7 sec) 
Heartbeat CPU 0 instructions: 81000001 cycles: 497068944 heartbeat IPC: 0.138947 cumulative IPC: 0.14465 (Simulation time: 2 hr 35 min 33 sec) 
Heartbeat CPU 0 instructions: 82000001 cycles: 504191980 heartbeat IPC: 0.14039 cumulative IPC: 0.144589 (Simulation time: 2 hr 37 min 7 sec) 
Heartbeat CPU 0 instructions: 83000002 cycles: 509749896 heartbeat IPC: 0.179924 cumulative IPC: 0.144979 (Simulation time: 2 hr 38 min 20 sec) 
Heartbeat CPU 0 instructions: 84000000 cycles: 515934794 heartbeat IPC: 0.161684 cumulative IPC: 0.145182 (Simulation time: 2 hr 39 min 36 sec) 
Heartbeat CPU 0 instructions: 85000000 cycles: 522861100 heartbeat IPC: 0.144377 cumulative IPC: 0.145171 (Simulation time: 2 hr 40 min 45 sec) 
Heartbeat CPU 0 instructions: 86000001 cycles: 531119371 heartbeat IPC: 0.121091 cumulative IPC: 0.144792 (Simulation time: 2 hr 41 min 57 sec) 
Heartbeat CPU 0 instructions: 87000000 cycles: 536651636 heartbeat IPC: 0.180758 cumulative IPC: 0.145167 (Simulation time: 2 hr 42 min 58 sec) 
Heartbeat CPU 0 instructions: 88000000 cycles: 542324668 heartbeat IPC: 0.176273 cumulative IPC: 0.145497 (Simulation time: 2 hr 43 min 57 sec) 
Heartbeat CPU 0 instructions: 89000002 cycles: 548269819 heartbeat IPC: 0.168205 cumulative IPC: 0.145746 (Simulation time: 2 hr 44 min 54 sec) 
Heartbeat CPU 0 instructions: 90000002 cycles: 554269950 heartbeat IPC: 0.166663 cumulative IPC: 0.145975 (Simulation time: 2 hr 45 min 46 sec) 
Heartbeat CPU 0 instructions: 91000001 cycles: 562846996 heartbeat IPC: 0.11659 cumulative IPC: 0.145522 (Simulation time: 2 hr 46 min 41 sec) 
Heartbeat CPU 0 instructions: 92000000 cycles: 569256785 heartbeat IPC: 0.156011 cumulative IPC: 0.145641 (Simulation time: 2 hr 47 min 32 sec) 
Heartbeat CPU 0 instructions: 93000003 cycles: 576233650 heartbeat IPC: 0.143331 cumulative IPC: 0.145613 (Simulation time: 2 hr 48 min 24 sec) 
Heartbeat CPU 0 instructions: 94000000 cycles: 583731478 heartbeat IPC: 0.133372 cumulative IPC: 0.145454 (Simulation time: 2 hr 49 min 15 sec) 
Heartbeat CPU 0 instructions: 95000000 cycles: 590263401 heartbeat IPC: 0.153094 cumulative IPC: 0.14554 (Simulation time: 2 hr 50 min 0 sec) 
Heartbeat CPU 0 instructions: 96000000 cycles: 599100709 heartbeat IPC: 0.113157 cumulative IPC: 0.145057 (Simulation time: 2 hr 50 min 48 sec) 
Heartbeat CPU 0 instructions: 97000000 cycles: 605421281 heartbeat IPC: 0.158214 cumulative IPC: 0.145196 (Simulation time: 2 hr 51 min 29 sec) 
Heartbeat CPU 0 instructions: 98000003 cycles: 612574203 heartbeat IPC: 0.139803 cumulative IPC: 0.145132 (Simulation time: 2 hr 52 min 9 sec) 
Heartbeat CPU 0 instructions: 99000001 cycles: 620235177 heartbeat IPC: 0.130531 cumulative IPC: 0.14495 (Simulation time: 2 hr 52 min 46 sec) 
Heartbeat CPU 0 instructions: 100000000 cycles: 627770983 heartbeat IPC: 0.1327 cumulative IPC: 0.144801 (Simulation time: 2 hr 53 min 21 sec) 
Heartbeat CPU 0 instructions: 101000000 cycles: 636626233 heartbeat IPC: 0.112927 cumulative IPC: 0.144354 (Simulation time: 2 hr 53 min 56 sec) 
Heartbeat CPU 0 instructions: 102000001 cycles: 642455901 heartbeat IPC: 0.171537 cumulative IPC: 0.144603 (Simulation time: 2 hr 54 min 26 sec) 
Heartbeat CPU 0 instructions: 103000000 cycles: 648612883 heartbeat IPC: 0.162417 cumulative IPC: 0.144773 (Simulation time: 2 hr 54 min 56 sec) 
Heartbeat CPU 0 instructions: 104000000 cycles: 654633825 heartbeat IPC: 0.166087 cumulative IPC: 0.144971 (Simulation time: 2 hr 55 min 24 sec) 
Heartbeat CPU 0 instructions: 105000000 cycles: 660139229 heartbeat IPC: 0.18164 cumulative IPC: 0.14528 (Simulation time: 2 hr 55 min 51 sec) 
Heartbeat CPU 0 instructions: 106000000 cycles: 668888174 heartbeat IPC: 0.114299 cumulative IPC: 0.144871 (Simulation time: 2 hr 56 min 18 sec) 
Heartbeat CPU 0 instructions: 107000002 cycles: 675256038 heartbeat IPC: 0.157039 cumulative IPC: 0.144987 (Simulation time: 2 hr 56 min 39 sec) 
Heartbeat CPU 0 instructions: 108000000 cycles: 683912578 heartbeat IPC: 0.115519 cumulative IPC: 0.14461 (Simulation time: 2 hr 57 min 2 sec) 
Heartbeat CPU 0 instructions: 109000003 cycles: 689853367 heartbeat IPC: 0.168328 cumulative IPC: 0.144817 (Simulation time: 2 hr 57 min 22 sec) 
Heartbeat CPU 0 instructions: 110000003 cycles: 695692771 heartbeat IPC: 0.17125 cumulative IPC: 0.14504 (Simulation time: 2 hr 57 min 39 sec) 
Finished CPU 0 instructions: 100000001 cycles: 689463085 cummulative IPC: 0.14504 (Simulation time: 2 hr 57 min 39 sec) 

ChampSim completed all CPUs

Region of Interest Statistics

CPU 0 cummulative IPC: 0.14504 instructions: 100000001 cycles: 689463085
LLC TOTAL     ACCESS:    8749743  HIT:    3019477  MISS:    5730266
LLC LOAD      ACCESS:    1884843  HIT:     649632  MISS:    1235211
LLC RFO       ACCESS:    1828618  HIT:     804375  MISS:    1024243
LLC PREFETCH  ACCESS:    2273497  HIT:      70179  MISS:    2203318
LLC WRITEBACK ACCESS:    2762785  HIT:    1495291  MISS:    1267494
