
*** ChampSim Multicore Out-of-Order Simulator ***

Warmup Instructions: 10000000
Simulation Instructions: 100000000
Configuration: 2
Number of CPUs: 1
LLC sets: 2048
LLC ways: 16
Off-chip DRAM Channels: 1 Width: 64-bit Data Rate: 1600 MT/s

CPU 0 runs /datasets/cs240c-wi22-a00-public/data/Assignment2-gz/wrf_1228B.trace.gz
CPU 0 L1D next line prefetcher
CPU 0 L2C IP-based stride prefetcher
config 2, num_core 1, llc_sets 2048
Heartbeat CPU 0 instructions: 1000003 cycles: 591063 heartbeat IPC: 1.69187 cumulative IPC: 1.69187 (Simulation time: 0 hr 1 min 45 sec) 
Heartbeat CPU 0 instructions: 2000003 cycles: 1111219 heartbeat IPC: 1.9225 cumulative IPC: 1.79983 (Simulation time: 0 hr 3 min 29 sec) 
Heartbeat CPU 0 instructions: 3000000 cycles: 1729184 heartbeat IPC: 1.61821 cumulative IPC: 1.73492 (Simulation time: 0 hr 5 min 15 sec) 
Heartbeat CPU 0 instructions: 4000000 cycles: 2349835 heartbeat IPC: 1.61121 cumulative IPC: 1.70225 (Simulation time: 0 hr 7 min 2 sec) 
Heartbeat CPU 0 instructions: 5000000 cycles: 3052198 heartbeat IPC: 1.42377 cumulative IPC: 1.63816 (Simulation time: 0 hr 8 min 42 sec) 
Heartbeat CPU 0 instructions: 6000000 cycles: 3612304 heartbeat IPC: 1.78538 cumulative IPC: 1.66099 (Simulation time: 0 hr 10 min 16 sec) 
Heartbeat CPU 0 instructions: 7000001 cycles: 4165076 heartbeat IPC: 1.80907 cumulative IPC: 1.68064 (Simulation time: 0 hr 11 min 46 sec) 
Heartbeat CPU 0 instructions: 8000000 cycles: 4716441 heartbeat IPC: 1.81368 cumulative IPC: 1.69619 (Simulation time: 0 hr 13 min 15 sec) 
Heartbeat CPU 0 instructions: 9000002 cycles: 5266621 heartbeat IPC: 1.81759 cumulative IPC: 1.70888 (Simulation time: 0 hr 14 min 44 sec) 
Heartbeat CPU 0 instructions: 10000001 cycles: 5819517 heartbeat IPC: 1.80866 cumulative IPC: 1.71836 (Simulation time: 0 hr 16 min 13 sec) 

Warmup complete CPU 0 instructions: 10000001 cycles: 5819517 (Simulation time: 0 hr 16 min 13 sec) 

Heartbeat CPU 0 instructions: 11000003 cycles: 6707544 heartbeat IPC: 1.12609 cumulative IPC: 1.12609 (Simulation time: 0 hr 17 min 45 sec) 
Heartbeat CPU 0 instructions: 12000000 cycles: 7705606 heartbeat IPC: 1.00194 cumulative IPC: 1.06039 (Simulation time: 0 hr 19 min 23 sec) 
Heartbeat CPU 0 instructions: 13000003 cycles: 8710664 heartbeat IPC: 0.99497 cumulative IPC: 1.03765 (Simulation time: 0 hr 20 min 56 sec) 
Heartbeat CPU 0 instructions: 14000002 cycles: 9618578 heartbeat IPC: 1.10142 cumulative IPC: 1.05289 (Simulation time: 0 hr 22 min 24 sec) 
Heartbeat CPU 0 instructions: 15000001 cycles: 10411581 heartbeat IPC: 1.26103 cumulative IPC: 1.08884 (Simulation time: 0 hr 23 min 46 sec) 
Heartbeat CPU 0 instructions: 16000000 cycles: 11298083 heartbeat IPC: 1.12803 cumulative IPC: 1.09518 (Simulation time: 0 hr 25 min 12 sec) 
Heartbeat CPU 0 instructions: 17000002 cycles: 12205488 heartbeat IPC: 1.10205 cumulative IPC: 1.09615 (Simulation time: 0 hr 26 min 36 sec) 
Heartbeat CPU 0 instructions: 18000003 cycles: 13041135 heartbeat IPC: 1.19668 cumulative IPC: 1.10779 (Simulation time: 0 hr 28 min 1 sec) 
Heartbeat CPU 0 instructions: 19000000 cycles: 13829247 heartbeat IPC: 1.26885 cumulative IPC: 1.12363 (Simulation time: 0 hr 29 min 24 sec) 
Heartbeat CPU 0 instructions: 20000000 cycles: 14709486 heartbeat IPC: 1.13606 cumulative IPC: 1.12486 (Simulation time: 0 hr 30 min 49 sec) 
Heartbeat CPU 0 instructions: 21000000 cycles: 15607357 heartbeat IPC: 1.11375 cumulative IPC: 1.12384 (Simulation time: 0 hr 32 min 15 sec) 
Heartbeat CPU 0 instructions: 22000000 cycles: 16524202 heartbeat IPC: 1.0907 cumulative IPC: 1.121 (Simulation time: 0 hr 33 min 38 sec) 
Heartbeat CPU 0 instructions: 23000003 cycles: 17379945 heartbeat IPC: 1.16858 cumulative IPC: 1.12453 (Simulation time: 0 hr 35 min 9 sec) 
Heartbeat CPU 0 instructions: 24000000 cycles: 18361815 heartbeat IPC: 1.01846 cumulative IPC: 1.11622 (Simulation time: 0 hr 36 min 43 sec) 
Heartbeat CPU 0 instructions: 25000000 cycles: 19382273 heartbeat IPC: 0.979952 cumulative IPC: 1.10597 (Simulation time: 0 hr 38 min 19 sec) 
Heartbeat CPU 0 instructions: 26000003 cycles: 20304596 heartbeat IPC: 1.08422 cumulative IPC: 1.10459 (Simulation time: 0 hr 39 min 51 sec) 
Heartbeat CPU 0 instructions: 27000003 cycles: 21279972 heartbeat IPC: 1.02525 cumulative IPC: 1.09958 (Simulation time: 0 hr 41 min 22 sec) 
Heartbeat CPU 0 instructions: 28000000 cycles: 22337917 heartbeat IPC: 0.945226 cumulative IPC: 1.08969 (Simulation time: 0 hr 42 min 58 sec) 
Heartbeat CPU 0 instructions: 29000003 cycles: 23929221 heartbeat IPC: 0.628417 cumulative IPC: 1.04916 (Simulation time: 0 hr 44 min 48 sec) 
Heartbeat CPU 0 instructions: 30000000 cycles: 25470043 heartbeat IPC: 0.649002 cumulative IPC: 1.01778 (Simulation time: 0 hr 46 min 34 sec) 
Heartbeat CPU 0 instructions: 31000003 cycles: 27565993 heartbeat IPC: 0.477112 cumulative IPC: 0.965674 (Simulation time: 0 hr 48 min 29 sec) 
Heartbeat CPU 0 instructions: 32000000 cycles: 29570579 heartbeat IPC: 0.498855 cumulative IPC: 0.926274 (Simulation time: 0 hr 50 min 32 sec) 
Heartbeat CPU 0 instructions: 33000001 cycles: 31025541 heartbeat IPC: 0.687304 cumulative IPC: 0.91248 (Simulation time: 0 hr 52 min 12 sec) 
Heartbeat CPU 0 instructions: 34000002 cycles: 32524061 heartbeat IPC: 0.667326 cumulative IPC: 0.898723 (Simulation time: 0 hr 53 min 51 sec) 
Heartbeat CPU 0 instructions: 35000001 cycles: 34081189 heartbeat IPC: 0.642207 cumulative IPC: 0.88459 (Simulation time: 0 hr 55 min 33 sec) 
Heartbeat CPU 0 instructions: 36000000 cycles: 34948076 heartbeat IPC: 1.15355 cumulative IPC: 0.892595 (Simulation time: 0 hr 56 min 56 sec) 
Heartbeat CPU 0 instructions: 37000001 cycles: 35839700 heartbeat IPC: 1.12155 cumulative IPC: 0.899395 (Simulation time: 0 hr 58 min 24 sec) 
Heartbeat CPU 0 instructions: 38000003 cycles: 36753490 heartbeat IPC: 1.09435 cumulative IPC: 0.905154 (Simulation time: 0 hr 59 min 51 sec) 
Heartbeat CPU 0 instructions: 39000002 cycles: 37701567 heartbeat IPC: 1.05477 cumulative IPC: 0.909603 (Simulation time: 1 hr 1 min 14 sec) 
Heartbeat CPU 0 instructions: 40000000 cycles: 38593106 heartbeat IPC: 1.12165 cumulative IPC: 0.915371 (Simulation time: 1 hr 2 min 43 sec) 
Heartbeat CPU 0 instructions: 41000000 cycles: 39528880 heartbeat IPC: 1.06863 cumulative IPC: 0.919626 (Simulation time: 1 hr 4 min 9 sec) 
Heartbeat CPU 0 instructions: 42000002 cycles: 40482869 heartbeat IPC: 1.04823 cumulative IPC: 0.923165 (Simulation time: 1 hr 5 min 36 sec) 
Heartbeat CPU 0 instructions: 43000000 cycles: 41453205 heartbeat IPC: 1.03057 cumulative IPC: 0.92609 (Simulation time: 1 hr 7 min 7 sec) 
Heartbeat CPU 0 instructions: 44000000 cycles: 42289492 heartbeat IPC: 1.19576 cumulative IPC: 0.932274 (Simulation time: 1 hr 8 min 27 sec) 
Heartbeat CPU 0 instructions: 45000000 cycles: 43091507 heartbeat IPC: 1.24686 cumulative IPC: 0.939043 (Simulation time: 1 hr 9 min 42 sec) 
Heartbeat CPU 0 instructions: 46000001 cycles: 43922265 heartbeat IPC: 1.20372 cumulative IPC: 0.944814 (Simulation time: 1 hr 10 min 58 sec) 
Heartbeat CPU 0 instructions: 47000001 cycles: 44786952 heartbeat IPC: 1.15649 cumulative IPC: 0.949511 (Simulation time: 1 hr 12 min 21 sec) 
Heartbeat CPU 0 instructions: 48000000 cycles: 45613141 heartbeat IPC: 1.21038 cumulative IPC: 0.954927 (Simulation time: 1 hr 13 min 39 sec) 
Heartbeat CPU 0 instructions: 49000001 cycles: 46450409 heartbeat IPC: 1.19436 cumulative IPC: 0.959861 (Simulation time: 1 hr 15 min 1 sec) 
Heartbeat CPU 0 instructions: 50000002 cycles: 47340898 heartbeat IPC: 1.12298 cumulative IPC: 0.963359 (Simulation time: 1 hr 16 min 28 sec) 
Heartbeat CPU 0 instructions: 51000001 cycles: 48231371 heartbeat IPC: 1.123 cumulative IPC: 0.966711 (Simulation time: 1 hr 17 min 51 sec) 
Heartbeat CPU 0 instructions: 52000000 cycles: 49142782 heartbeat IPC: 1.0972 cumulative IPC: 0.969456 (Simulation time: 1 hr 19 min 18 sec) 
Heartbeat CPU 0 instructions: 53000002 cycles: 50044539 heartbeat IPC: 1.10895 cumulative IPC: 0.9723 (Simulation time: 1 hr 20 min 47 sec) 
Heartbeat CPU 0 instructions: 54000001 cycles: 50980210 heartbeat IPC: 1.06875 cumulative IPC: 0.974299 (Simulation time: 1 hr 22 min 22 sec) 
Heartbeat CPU 0 instructions: 55000001 cycles: 51922140 heartbeat IPC: 1.06165 cumulative IPC: 0.976083 (Simulation time: 1 hr 23 min 59 sec) 
Heartbeat CPU 0 instructions: 56000000 cycles: 52851561 heartbeat IPC: 1.07594 cumulative IPC: 0.978057 (Simulation time: 1 hr 25 min 30 sec) 
Heartbeat CPU 0 instructions: 57000001 cycles: 53828093 heartbeat IPC: 1.02403 cumulative IPC: 0.978992 (Simulation time: 1 hr 27 min 2 sec) 
Heartbeat CPU 0 instructions: 58000000 cycles: 54821108 heartbeat IPC: 1.00703 cumulative IPC: 0.97956 (Simulation time: 1 hr 28 min 36 sec) 
Heartbeat CPU 0 instructions: 59000001 cycles: 56534813 heartbeat IPC: 0.583532 cumulative IPC: 0.966178 (Simulation time: 1 hr 30 min 32 sec) 
Heartbeat CPU 0 instructions: 60000000 cycles: 58143698 heartbeat IPC: 0.621548 cumulative IPC: 0.955581 (Simulation time: 1 hr 32 min 18 sec) 
Heartbeat CPU 0 instructions: 61000000 cycles: 60442566 heartbeat IPC: 0.434997 cumulative IPC: 0.933672 (Simulation time: 1 hr 34 min 11 sec) 
Heartbeat CPU 0 instructions: 62000000 cycles: 62156760 heartbeat IPC: 0.583365 cumulative IPC: 0.923013 (Simulation time: 1 hr 35 min 58 sec) 
Heartbeat CPU 0 instructions: 63000001 cycles: 63652026 heartbeat IPC: 0.668778 cumulative IPC: 0.91644 (Simulation time: 1 hr 37 min 41 sec) 
Heartbeat CPU 0 instructions: 64000000 cycles: 65175373 heartbeat IPC: 0.656449 cumulative IPC: 0.909767 (Simulation time: 1 hr 39 min 26 sec) 
Heartbeat CPU 0 instructions: 65000003 cycles: 66670201 heartbeat IPC: 0.668975 cumulative IPC: 0.903852 (Simulation time: 1 hr 41 min 11 sec) 
Heartbeat CPU 0 instructions: 66000000 cycles: 68165653 heartbeat IPC: 0.668692 cumulative IPC: 0.898211 (Simulation time: 1 hr 43 min 4 sec) 
Heartbeat CPU 0 instructions: 67000000 cycles: 69660174 heartbeat IPC: 0.669111 cumulative IPC: 0.892848 (Simulation time: 1 hr 44 min 52 sec) 
Heartbeat CPU 0 instructions: 68000000 cycles: 71154628 heartbeat IPC: 0.669141 cumulative IPC: 0.887731 (Simulation time: 1 hr 46 min 47 sec) 
Heartbeat CPU 0 instructions: 69000000 cycles: 72661875 heartbeat IPC: 0.663461 cumulative IPC: 0.882674 (Simulation time: 1 hr 48 min 38 sec) 
Heartbeat CPU 0 instructions: 70000001 cycles: 74158457 heartbeat IPC: 0.66819 cumulative IPC: 0.877977 (Simulation time: 1 hr 50 min 30 sec) 
Heartbeat CPU 0 instructions: 71000001 cycles: 75652480 heartbeat IPC: 0.669334 cumulative IPC: 0.873513 (Simulation time: 1 hr 52 min 27 sec) 
Heartbeat CPU 0 instructions: 72000000 cycles: 77135428 heartbeat IPC: 0.674332 cumulative IPC: 0.869371 (Simulation time: 1 hr 54 min 21 sec) 
Heartbeat CPU 0 instructions: 73000003 cycles: 78623620 heartbeat IPC: 0.671958 cumulative IPC: 0.865336 (Simulation time: 1 hr 56 min 19 sec) 
Heartbeat CPU 0 instructions: 74000000 cycles: 80121150 heartbeat IPC: 0.667764 cumulative IPC: 0.861354 (Simulation time: 1 hr 58 min 9 sec) 
Heartbeat CPU 0 instructions: 75000001 cycles: 81615134 heartbeat IPC: 0.669352 cumulative IPC: 0.857569 (Simulation time: 2 hr 0 min 4 sec) 
Heartbeat CPU 0 instructions: 76000000 cycles: 83111566 heartbeat IPC: 0.668256 cumulative IPC: 0.853904 (Simulation time: 2 hr 1 min 58 sec) 
Heartbeat CPU 0 instructions: 77000003 cycles: 84605358 heartbeat IPC: 0.669439 cumulative IPC: 0.850407 (Simulation time: 2 hr 3 min 55 sec) 
Heartbeat CPU 0 instructions: 78000001 cycles: 86100049 heartbeat IPC: 0.669033 cumulative IPC: 0.84703 (Simulation time: 2 hr 5 min 50 sec) 
Heartbeat CPU 0 instructions: 79000000 cycles: 87596481 heartbeat IPC: 0.668256 cumulative IPC: 0.843758 (Simulation time: 2 hr 7 min 43 sec) 
Heartbeat CPU 0 instructions: 80000000 cycles: 89087147 heartbeat IPC: 0.670841 cumulative IPC: 0.840663 (Simulation time: 2 hr 9 min 37 sec) 
Heartbeat CPU 0 instructions: 81000001 cycles: 90571082 heartbeat IPC: 0.673885 cumulative IPC: 0.837743 (Simulation time: 2 hr 11 min 24 sec) 
Heartbeat CPU 0 instructions: 82000000 cycles: 92054287 heartbeat IPC: 0.674215 cumulative IPC: 0.83493 (Simulation time: 2 hr 13 min 12 sec) 
Heartbeat CPU 0 instructions: 83000000 cycles: 93537981 heartbeat IPC: 0.673993 cumulative IPC: 0.832208 (Simulation time: 2 hr 15 min 2 sec) 
Heartbeat CPU 0 instructions: 84000000 cycles: 95032771 heartbeat IPC: 0.66899 cumulative IPC: 0.829473 (Simulation time: 2 hr 16 min 52 sec) 
Heartbeat CPU 0 instructions: 85000000 cycles: 96527653 heartbeat IPC: 0.668949 cumulative IPC: 0.826828 (Simulation time: 2 hr 18 min 35 sec) 
Heartbeat CPU 0 instructions: 86000000 cycles: 98021418 heartbeat IPC: 0.669449 cumulative IPC: 0.824278 (Simulation time: 2 hr 20 min 16 sec) 
Heartbeat CPU 0 instructions: 87000000 cycles: 99516269 heartbeat IPC: 0.668963 cumulative IPC: 0.8218 (Simulation time: 2 hr 22 min 3 sec) 
Heartbeat CPU 0 instructions: 88000000 cycles: 101011481 heartbeat IPC: 0.668801 cumulative IPC: 0.819397 (Simulation time: 2 hr 23 min 50 sec) 
Heartbeat CPU 0 instructions: 89000002 cycles: 102507110 heartbeat IPC: 0.668616 cumulative IPC: 0.817065 (Simulation time: 2 hr 25 min 30 sec) 
Heartbeat CPU 0 instructions: 90000000 cycles: 103991443 heartbeat IPC: 0.673702 cumulative IPC: 0.814897 (Simulation time: 2 hr 27 min 6 sec) 
Heartbeat CPU 0 instructions: 91000000 cycles: 105475063 heartbeat IPC: 0.674027 cumulative IPC: 0.8128 (Simulation time: 2 hr 28 min 36 sec) 
Heartbeat CPU 0 instructions: 92000000 cycles: 106958901 heartbeat IPC: 0.673928 cumulative IPC: 0.810762 (Simulation time: 2 hr 30 min 2 sec) 
Heartbeat CPU 0 instructions: 93000000 cycles: 108448641 heartbeat IPC: 0.671258 cumulative IPC: 0.808737 (Simulation time: 2 hr 31 min 26 sec) 
Heartbeat CPU 0 instructions: 94000003 cycles: 109942497 heartbeat IPC: 0.669411 cumulative IPC: 0.806738 (Simulation time: 2 hr 32 min 56 sec) 
Heartbeat CPU 0 instructions: 95000000 cycles: 111438292 heartbeat IPC: 0.668539 cumulative IPC: 0.804781 (Simulation time: 2 hr 34 min 20 sec) 
Heartbeat CPU 0 instructions: 96000000 cycles: 112932247 heartbeat IPC: 0.669364 cumulative IPC: 0.802892 (Simulation time: 2 hr 35 min 36 sec) 
Heartbeat CPU 0 instructions: 97000001 cycles: 114427792 heartbeat IPC: 0.668653 cumulative IPC: 0.801044 (Simulation time: 2 hr 36 min 49 sec) 
Heartbeat CPU 0 instructions: 98000003 cycles: 115923150 heartbeat IPC: 0.668738 cumulative IPC: 0.799247 (Simulation time: 2 hr 37 min 59 sec) 
Heartbeat CPU 0 instructions: 99000000 cycles: 117412252 heartbeat IPC: 0.671544 cumulative IPC: 0.797543 (Simulation time: 2 hr 39 min 14 sec) 
Heartbeat CPU 0 instructions: 100000000 cycles: 118895643 heartbeat IPC: 0.674131 cumulative IPC: 0.795924 (Simulation time: 2 hr 40 min 22 sec) 
Heartbeat CPU 0 instructions: 101000000 cycles: 120378853 heartbeat IPC: 0.674213 cumulative IPC: 0.794348 (Simulation time: 2 hr 41 min 25 sec) 
Heartbeat CPU 0 instructions: 102000003 cycles: 121862437 heartbeat IPC: 0.674045 cumulative IPC: 0.79281 (Simulation time: 2 hr 42 min 29 sec) 
Heartbeat CPU 0 instructions: 103000003 cycles: 123358695 heartbeat IPC: 0.668334 cumulative IPC: 0.791226 (Simulation time: 2 hr 43 min 29 sec) 
Heartbeat CPU 0 instructions: 104000000 cycles: 124853234 heartbeat IPC: 0.669101 cumulative IPC: 0.789692 (Simulation time: 2 hr 44 min 31 sec) 
Heartbeat CPU 0 instructions: 105000000 cycles: 126348129 heartbeat IPC: 0.668943 cumulative IPC: 0.788195 (Simulation time: 2 hr 45 min 35 sec) 
Heartbeat CPU 0 instructions: 106000000 cycles: 127843189 heartbeat IPC: 0.668869 cumulative IPC: 0.786733 (Simulation time: 2 hr 46 min 37 sec) 
Heartbeat CPU 0 instructions: 107000000 cycles: 129339046 heartbeat IPC: 0.668513 cumulative IPC: 0.785301 (Simulation time: 2 hr 47 min 37 sec) 
Heartbeat CPU 0 instructions: 108000000 cycles: 130834624 heartbeat IPC: 0.668638 cumulative IPC: 0.783905 (Simulation time: 2 hr 48 min 37 sec) 
Heartbeat CPU 0 instructions: 109000003 cycles: 132317484 heartbeat IPC: 0.674375 cumulative IPC: 0.782621 (Simulation time: 2 hr 49 min 30 sec) 
Heartbeat CPU 0 instructions: 110000001 cycles: 133800674 heartbeat IPC: 0.674221 cumulative IPC: 0.781365 (Simulation time: 2 hr 50 min 18 sec) 
Finished CPU 0 instructions: 100000000 cycles: 127981157 cummulative IPC: 0.781365 (Simulation time: 2 hr 50 min 18 sec) 

ChampSim completed all CPUs

Region of Interest Statistics

CPU 0 cummulative IPC: 0.781365 instructions: 100000000 cycles: 127981157
LLC TOTAL     ACCESS:    1495552  HIT:     270439  MISS:    1225113
LLC LOAD      ACCESS:      88936  HIT:      24578  MISS:      64358
LLC RFO       ACCESS:     219209  HIT:      19049  MISS:     200160
LLC PREFETCH  ACCESS:     751264  HIT:     107936  MISS:     643328
LLC WRITEBACK ACCESS:     436143  HIT:     118876  MISS:     317267
