
*** ChampSim Multicore Out-of-Order Simulator ***

Warmup Instructions: 10000000
Simulation Instructions: 100000000
Configuration: 2
Number of CPUs: 1
LLC sets: 2048
LLC ways: 16
Off-chip DRAM Channels: 1 Width: 64-bit Data Rate: 1600 MT/s

CPU 0 runs /datasets/cs240c-wi22-a00-public/data/Assignment2-gz/calculix_3812B.trace.gz
CPU 0 L1D next line prefetcher
CPU 0 L2C IP-based stride prefetcher
config 2, num_core 1, llc_sets 2048
Heartbeat CPU 0 instructions: 1000001 cycles: 478705 heartbeat IPC: 2.08897 cumulative IPC: 2.08897 (Simulation time: 0 hr 0 min 37 sec) 
Heartbeat CPU 0 instructions: 2000002 cycles: 956508 heartbeat IPC: 2.09291 cumulative IPC: 2.09094 (Simulation time: 0 hr 1 min 10 sec) 
Heartbeat CPU 0 instructions: 3000002 cycles: 1435024 heartbeat IPC: 2.08979 cumulative IPC: 2.09056 (Simulation time: 0 hr 1 min 47 sec) 
Heartbeat CPU 0 instructions: 4000000 cycles: 1907507 heartbeat IPC: 2.11647 cumulative IPC: 2.09698 (Simulation time: 0 hr 2 min 21 sec) 
Heartbeat CPU 0 instructions: 5000000 cycles: 2355872 heartbeat IPC: 2.23033 cumulative IPC: 2.12236 (Simulation time: 0 hr 2 min 49 sec) 
Heartbeat CPU 0 instructions: 6000003 cycles: 2761283 heartbeat IPC: 2.46664 cumulative IPC: 2.1729 (Simulation time: 0 hr 3 min 12 sec) 
Heartbeat CPU 0 instructions: 7000002 cycles: 3154384 heartbeat IPC: 2.54387 cumulative IPC: 2.21913 (Simulation time: 0 hr 3 min 35 sec) 
Heartbeat CPU 0 instructions: 8000000 cycles: 3547548 heartbeat IPC: 2.54346 cumulative IPC: 2.25508 (Simulation time: 0 hr 3 min 56 sec) 
Heartbeat CPU 0 instructions: 9000000 cycles: 3940551 heartbeat IPC: 2.54451 cumulative IPC: 2.28394 (Simulation time: 0 hr 4 min 18 sec) 
Heartbeat CPU 0 instructions: 10000003 cycles: 4333647 heartbeat IPC: 2.54392 cumulative IPC: 2.30753 (Simulation time: 0 hr 4 min 42 sec) 

Warmup complete CPU 0 instructions: 10000003 cycles: 4333647 (Simulation time: 0 hr 4 min 42 sec) 

Heartbeat CPU 0 instructions: 11000001 cycles: 4772064 heartbeat IPC: 2.28093 cumulative IPC: 2.28093 (Simulation time: 0 hr 5 min 7 sec) 
Heartbeat CPU 0 instructions: 12000000 cycles: 5208868 heartbeat IPC: 2.28935 cumulative IPC: 2.28513 (Simulation time: 0 hr 5 min 32 sec) 
Heartbeat CPU 0 instructions: 13000002 cycles: 5644848 heartbeat IPC: 2.29369 cumulative IPC: 2.28798 (Simulation time: 0 hr 5 min 58 sec) 
Heartbeat CPU 0 instructions: 14000000 cycles: 6443013 heartbeat IPC: 1.25287 cumulative IPC: 1.8963 (Simulation time: 0 hr 7 min 8 sec) 
Heartbeat CPU 0 instructions: 15000003 cycles: 6920673 heartbeat IPC: 2.09355 cumulative IPC: 1.93272 (Simulation time: 0 hr 9 min 23 sec) 
Heartbeat CPU 0 instructions: 16000000 cycles: 7366488 heartbeat IPC: 2.24308 cumulative IPC: 1.97834 (Simulation time: 0 hr 11 min 28 sec) 
Heartbeat CPU 0 instructions: 17000001 cycles: 7807816 heartbeat IPC: 2.26589 cumulative IPC: 2.01487 (Simulation time: 0 hr 13 min 33 sec) 
Heartbeat CPU 0 instructions: 18000001 cycles: 8244484 heartbeat IPC: 2.29007 cumulative IPC: 2.0456 (Simulation time: 0 hr 15 min 33 sec) 
Heartbeat CPU 0 instructions: 19000001 cycles: 8682096 heartbeat IPC: 2.28513 cumulative IPC: 2.0697 (Simulation time: 0 hr 17 min 41 sec) 
Heartbeat CPU 0 instructions: 20000000 cycles: 9206201 heartbeat IPC: 1.90801 cumulative IPC: 2.05231 (Simulation time: 0 hr 19 min 48 sec) 
Heartbeat CPU 0 instructions: 21000001 cycles: 9647599 heartbeat IPC: 2.26553 cumulative IPC: 2.07002 (Simulation time: 0 hr 21 min 56 sec) 
Heartbeat CPU 0 instructions: 22000000 cycles: 10089877 heartbeat IPC: 2.26102 cumulative IPC: 2.0847 (Simulation time: 0 hr 23 min 55 sec) 
Heartbeat CPU 0 instructions: 23000001 cycles: 10529830 heartbeat IPC: 2.27297 cumulative IPC: 2.09807 (Simulation time: 0 hr 26 min 3 sec) 
Heartbeat CPU 0 instructions: 24000000 cycles: 10970177 heartbeat IPC: 2.27093 cumulative IPC: 2.10954 (Simulation time: 0 hr 28 min 9 sec) 
Heartbeat CPU 0 instructions: 25000003 cycles: 11495069 heartbeat IPC: 1.90516 cumulative IPC: 2.09456 (Simulation time: 0 hr 30 min 8 sec) 
Heartbeat CPU 0 instructions: 26000003 cycles: 12042328 heartbeat IPC: 1.82729 cumulative IPC: 2.07558 (Simulation time: 0 hr 32 min 23 sec) 
Heartbeat CPU 0 instructions: 27000000 cycles: 12575729 heartbeat IPC: 1.87476 cumulative IPC: 2.06259 (Simulation time: 0 hr 34 min 23 sec) 
Heartbeat CPU 0 instructions: 28000000 cycles: 13216568 heartbeat IPC: 1.56045 cumulative IPC: 2.02636 (Simulation time: 0 hr 36 min 31 sec) 
Heartbeat CPU 0 instructions: 29000002 cycles: 13693974 heartbeat IPC: 2.09466 cumulative IPC: 2.02984 (Simulation time: 0 hr 38 min 41 sec) 
Heartbeat CPU 0 instructions: 30000001 cycles: 14246123 heartbeat IPC: 1.8111 cumulative IPC: 2.01766 (Simulation time: 0 hr 40 min 49 sec) 
Heartbeat CPU 0 instructions: 31000001 cycles: 14792787 heartbeat IPC: 1.82928 cumulative IPC: 2.00781 (Simulation time: 0 hr 42 min 56 sec) 
Heartbeat CPU 0 instructions: 32000000 cycles: 15525564 heartbeat IPC: 1.36467 cumulative IPC: 1.9657 (Simulation time: 0 hr 45 min 21 sec) 
Heartbeat CPU 0 instructions: 33000003 cycles: 16230172 heartbeat IPC: 1.41923 cumulative IPC: 1.93334 (Simulation time: 0 hr 47 min 46 sec) 
Heartbeat CPU 0 instructions: 34000000 cycles: 16930067 heartbeat IPC: 1.42878 cumulative IPC: 1.9053 (Simulation time: 0 hr 50 min 9 sec) 
Heartbeat CPU 0 instructions: 35000000 cycles: 17603266 heartbeat IPC: 1.48544 cumulative IPC: 1.884 (Simulation time: 0 hr 52 min 31 sec) 
Heartbeat CPU 0 instructions: 36000000 cycles: 18244599 heartbeat IPC: 1.55925 cumulative IPC: 1.86903 (Simulation time: 0 hr 54 min 52 sec) 
Heartbeat CPU 0 instructions: 37000002 cycles: 18870416 heartbeat IPC: 1.59791 cumulative IPC: 1.85736 (Simulation time: 0 hr 57 min 14 sec) 
Heartbeat CPU 0 instructions: 38000003 cycles: 19505423 heartbeat IPC: 1.57479 cumulative IPC: 1.84553 (Simulation time: 0 hr 59 min 50 sec) 
Heartbeat CPU 0 instructions: 39000003 cycles: 20279161 heartbeat IPC: 1.29243 cumulative IPC: 1.81869 (Simulation time: 1 hr 2 min 12 sec) 
Heartbeat CPU 0 instructions: 40000000 cycles: 21113447 heartbeat IPC: 1.19863 cumulative IPC: 1.78786 (Simulation time: 1 hr 4 min 39 sec) 
Heartbeat CPU 0 instructions: 41000000 cycles: 22035013 heartbeat IPC: 1.08511 cumulative IPC: 1.75128 (Simulation time: 1 hr 6 min 58 sec) 
Heartbeat CPU 0 instructions: 42000001 cycles: 22636387 heartbeat IPC: 1.66286 cumulative IPC: 1.74837 (Simulation time: 1 hr 9 min 3 sec) 
Heartbeat CPU 0 instructions: 43000000 cycles: 23257137 heartbeat IPC: 1.61095 cumulative IPC: 1.74386 (Simulation time: 1 hr 11 min 16 sec) 
Heartbeat CPU 0 instructions: 44000000 cycles: 23933894 heartbeat IPC: 1.47764 cumulative IPC: 1.73467 (Simulation time: 1 hr 13 min 43 sec) 
Heartbeat CPU 0 instructions: 45000002 cycles: 24608303 heartbeat IPC: 1.48278 cumulative IPC: 1.72629 (Simulation time: 1 hr 16 min 14 sec) 
Heartbeat CPU 0 instructions: 46000002 cycles: 25332590 heartbeat IPC: 1.38067 cumulative IPC: 1.71437 (Simulation time: 1 hr 18 min 46 sec) 
Heartbeat CPU 0 instructions: 47000002 cycles: 26135591 heartbeat IPC: 1.24533 cumulative IPC: 1.6971 (Simulation time: 1 hr 21 min 4 sec) 
Heartbeat CPU 0 instructions: 48000000 cycles: 26582377 heartbeat IPC: 2.2382 cumulative IPC: 1.70796 (Simulation time: 1 hr 23 min 21 sec) 
Heartbeat CPU 0 instructions: 49000000 cycles: 27037411 heartbeat IPC: 2.19764 cumulative IPC: 1.71778 (Simulation time: 1 hr 25 min 37 sec) 
Heartbeat CPU 0 instructions: 50000000 cycles: 27522938 heartbeat IPC: 2.05962 cumulative IPC: 1.72493 (Simulation time: 1 hr 27 min 52 sec) 
Heartbeat CPU 0 instructions: 51000000 cycles: 28111506 heartbeat IPC: 1.69904 cumulative IPC: 1.72429 (Simulation time: 1 hr 30 min 14 sec) 
Heartbeat CPU 0 instructions: 52000000 cycles: 28653597 heartbeat IPC: 1.84471 cumulative IPC: 1.72698 (Simulation time: 1 hr 32 min 38 sec) 
Heartbeat CPU 0 instructions: 53000000 cycles: 29109991 heartbeat IPC: 2.19109 cumulative IPC: 1.73553 (Simulation time: 1 hr 34 min 59 sec) 
Heartbeat CPU 0 instructions: 54000003 cycles: 29565948 heartbeat IPC: 2.1932 cumulative IPC: 1.7438 (Simulation time: 1 hr 37 min 18 sec) 
Heartbeat CPU 0 instructions: 55000001 cycles: 30023332 heartbeat IPC: 2.18634 cumulative IPC: 1.75168 (Simulation time: 1 hr 39 min 43 sec) 
Heartbeat CPU 0 instructions: 56000000 cycles: 30482577 heartbeat IPC: 2.17748 cumulative IPC: 1.75915 (Simulation time: 1 hr 42 min 2 sec) 
Heartbeat CPU 0 instructions: 57000003 cycles: 30945535 heartbeat IPC: 2.16003 cumulative IPC: 1.76613 (Simulation time: 1 hr 44 min 11 sec) 
Heartbeat CPU 0 instructions: 58000000 cycles: 31420291 heartbeat IPC: 2.10634 cumulative IPC: 1.77209 (Simulation time: 1 hr 46 min 14 sec) 
Heartbeat CPU 0 instructions: 59000001 cycles: 32005293 heartbeat IPC: 1.7094 cumulative IPC: 1.77077 (Simulation time: 1 hr 48 min 30 sec) 
Heartbeat CPU 0 instructions: 60000000 cycles: 32556630 heartbeat IPC: 1.81377 cumulative IPC: 1.77161 (Simulation time: 1 hr 50 min 39 sec) 
Heartbeat CPU 0 instructions: 61000003 cycles: 33118228 heartbeat IPC: 1.78064 cumulative IPC: 1.77178 (Simulation time: 1 hr 53 min 1 sec) 
Heartbeat CPU 0 instructions: 62000002 cycles: 33677739 heartbeat IPC: 1.78727 cumulative IPC: 1.77208 (Simulation time: 1 hr 55 min 26 sec) 
Heartbeat CPU 0 instructions: 63000001 cycles: 34245646 heartbeat IPC: 1.76085 cumulative IPC: 1.77186 (Simulation time: 1 hr 57 min 34 sec) 
Heartbeat CPU 0 instructions: 64000000 cycles: 34809288 heartbeat IPC: 1.77417 cumulative IPC: 1.77191 (Simulation time: 1 hr 59 min 41 sec) 
Heartbeat CPU 0 instructions: 65000000 cycles: 35507999 heartbeat IPC: 1.43121 cumulative IPC: 1.76427 (Simulation time: 2 hr 2 min 8 sec) 
Heartbeat CPU 0 instructions: 66000002 cycles: 36061949 heartbeat IPC: 1.80522 cumulative IPC: 1.76499 (Simulation time: 2 hr 4 min 13 sec) 
Heartbeat CPU 0 instructions: 67000002 cycles: 36557899 heartbeat IPC: 2.01633 cumulative IPC: 1.76885 (Simulation time: 2 hr 6 min 17 sec) 
Heartbeat CPU 0 instructions: 68000000 cycles: 37043193 heartbeat IPC: 2.0606 cumulative IPC: 1.77318 (Simulation time: 2 hr 8 min 27 sec) 
Heartbeat CPU 0 instructions: 69000003 cycles: 37580755 heartbeat IPC: 1.86026 cumulative IPC: 1.77459 (Simulation time: 2 hr 10 min 30 sec) 
Heartbeat CPU 0 instructions: 70000000 cycles: 38086207 heartbeat IPC: 1.97842 cumulative IPC: 1.77764 (Simulation time: 2 hr 12 min 39 sec) 
Heartbeat CPU 0 instructions: 71000000 cycles: 38597649 heartbeat IPC: 1.95526 cumulative IPC: 1.78029 (Simulation time: 2 hr 14 min 46 sec) 
Heartbeat CPU 0 instructions: 72000000 cycles: 39110696 heartbeat IPC: 1.94914 cumulative IPC: 1.78278 (Simulation time: 2 hr 17 min 0 sec) 
Heartbeat CPU 0 instructions: 73000001 cycles: 39662908 heartbeat IPC: 1.8109 cumulative IPC: 1.78322 (Simulation time: 2 hr 19 min 21 sec) 
Heartbeat CPU 0 instructions: 74000002 cycles: 40280712 heartbeat IPC: 1.61864 cumulative IPC: 1.7804 (Simulation time: 2 hr 21 min 38 sec) 
Heartbeat CPU 0 instructions: 75000000 cycles: 40824030 heartbeat IPC: 1.84054 cumulative IPC: 1.78129 (Simulation time: 2 hr 24 min 0 sec) 
Heartbeat CPU 0 instructions: 76000000 cycles: 41607017 heartbeat IPC: 1.27716 cumulative IPC: 1.7707 (Simulation time: 2 hr 26 min 26 sec) 
Heartbeat CPU 0 instructions: 77000000 cycles: 42330351 heartbeat IPC: 1.38249 cumulative IPC: 1.76331 (Simulation time: 2 hr 28 min 44 sec) 
Heartbeat CPU 0 instructions: 78000003 cycles: 43049000 heartbeat IPC: 1.3915 cumulative IPC: 1.75641 (Simulation time: 2 hr 31 min 11 sec) 
Heartbeat CPU 0 instructions: 79000000 cycles: 43759901 heartbeat IPC: 1.40666 cumulative IPC: 1.7501 (Simulation time: 2 hr 33 min 27 sec) 
Heartbeat CPU 0 instructions: 80000000 cycles: 44444983 heartbeat IPC: 1.45968 cumulative IPC: 1.74514 (Simulation time: 2 hr 35 min 52 sec) 
Heartbeat CPU 0 instructions: 81000001 cycles: 45109315 heartbeat IPC: 1.50527 cumulative IPC: 1.74123 (Simulation time: 2 hr 38 min 22 sec) 
Heartbeat CPU 0 instructions: 82000002 cycles: 45752273 heartbeat IPC: 1.55531 cumulative IPC: 1.73835 (Simulation time: 2 hr 40 min 39 sec) 
Heartbeat CPU 0 instructions: 83000002 cycles: 46558534 heartbeat IPC: 1.24029 cumulative IPC: 1.72884 (Simulation time: 2 hr 43 min 1 sec) 
Heartbeat CPU 0 instructions: 84000000 cycles: 47181458 heartbeat IPC: 1.60533 cumulative IPC: 1.72704 (Simulation time: 2 hr 45 min 17 sec) 
Heartbeat CPU 0 instructions: 85000000 cycles: 47687478 heartbeat IPC: 1.97621 cumulative IPC: 1.72995 (Simulation time: 2 hr 47 min 38 sec) 
Heartbeat CPU 0 instructions: 86000001 cycles: 48190149 heartbeat IPC: 1.98937 cumulative IPC: 1.73292 (Simulation time: 2 hr 49 min 46 sec) 
Heartbeat CPU 0 instructions: 87000002 cycles: 48688212 heartbeat IPC: 2.00778 cumulative IPC: 1.73601 (Simulation time: 2 hr 52 min 0 sec) 
Heartbeat CPU 0 instructions: 88000000 cycles: 49179851 heartbeat IPC: 2.03401 cumulative IPC: 1.73928 (Simulation time: 2 hr 54 min 14 sec) 
Heartbeat CPU 0 instructions: 89000003 cycles: 49674863 heartbeat IPC: 2.02016 cumulative IPC: 1.74234 (Simulation time: 2 hr 56 min 30 sec) 
Heartbeat CPU 0 instructions: 90000003 cycles: 50174707 heartbeat IPC: 2.00062 cumulative IPC: 1.74516 (Simulation time: 2 hr 58 min 43 sec) 
Heartbeat CPU 0 instructions: 91000003 cycles: 50685435 heartbeat IPC: 1.95799 cumulative IPC: 1.74751 (Simulation time: 3 hr 0 min 59 sec) 
Heartbeat CPU 0 instructions: 92000000 cycles: 51147692 heartbeat IPC: 2.16329 cumulative IPC: 1.75161 (Simulation time: 3 hr 3 min 11 sec) 
Heartbeat CPU 0 instructions: 93000000 cycles: 51598539 heartbeat IPC: 2.21805 cumulative IPC: 1.75606 (Simulation time: 3 hr 5 min 30 sec) 
Heartbeat CPU 0 instructions: 94000003 cycles: 52048013 heartbeat IPC: 2.22483 cumulative IPC: 1.76048 (Simulation time: 3 hr 7 min 44 sec) 
Heartbeat CPU 0 instructions: 95000001 cycles: 52651930 heartbeat IPC: 1.65585 cumulative IPC: 1.75917 (Simulation time: 3 hr 10 min 2 sec) 
Heartbeat CPU 0 instructions: 96000000 cycles: 53215406 heartbeat IPC: 1.7747 cumulative IPC: 1.75935 (Simulation time: 3 hr 12 min 21 sec) 
Heartbeat CPU 0 instructions: 97000000 cycles: 53720769 heartbeat IPC: 1.97878 cumulative IPC: 1.76159 (Simulation time: 3 hr 14 min 28 sec) 
Heartbeat CPU 0 instructions: 98000003 cycles: 54226857 heartbeat IPC: 1.97595 cumulative IPC: 1.76377 (Simulation time: 3 hr 16 min 34 sec) 
Heartbeat CPU 0 instructions: 99000000 cycles: 54731140 heartbeat IPC: 1.98301 cumulative IPC: 1.76596 (Simulation time: 3 hr 18 min 54 sec) 
Heartbeat CPU 0 instructions: 100000000 cycles: 55237499 heartbeat IPC: 1.97488 cumulative IPC: 1.76804 (Simulation time: 3 hr 21 min 3 sec) 
Heartbeat CPU 0 instructions: 101000003 cycles: 55737600 heartbeat IPC: 1.9996 cumulative IPC: 1.77029 (Simulation time: 3 hr 23 min 27 sec) 
Heartbeat CPU 0 instructions: 102000002 cycles: 56297396 heartbeat IPC: 1.78636 cumulative IPC: 1.77047 (Simulation time: 3 hr 26 min 8 sec) 
Heartbeat CPU 0 instructions: 103000000 cycles: 56859500 heartbeat IPC: 1.77903 cumulative IPC: 1.77056 (Simulation time: 3 hr 28 min 29 sec) 
Heartbeat CPU 0 instructions: 104000000 cycles: 57422116 heartbeat IPC: 1.77741 cumulative IPC: 1.77063 (Simulation time: 3 hr 30 min 52 sec) 
Heartbeat CPU 0 instructions: 105000000 cycles: 57991854 heartbeat IPC: 1.75519 cumulative IPC: 1.77047 (Simulation time: 3 hr 33 min 7 sec) 
Heartbeat CPU 0 instructions: 106000003 cycles: 58557936 heartbeat IPC: 1.76653 cumulative IPC: 1.77042 (Simulation time: 3 hr 35 min 21 sec) 
Heartbeat CPU 0 instructions: 107000000 cycles: 59125581 heartbeat IPC: 1.76166 cumulative IPC: 1.77033 (Simulation time: 3 hr 37 min 41 sec) 
Heartbeat CPU 0 instructions: 108000000 cycles: 59739786 heartbeat IPC: 1.62812 cumulative IPC: 1.76876 (Simulation time: 3 hr 40 min 36 sec) 
Heartbeat CPU 0 instructions: 109000002 cycles: 60380813 heartbeat IPC: 1.56 cumulative IPC: 1.76637 (Simulation time: 3 hr 42 min 58 sec) 
Heartbeat CPU 0 instructions: 110000003 cycles: 60861799 heartbeat IPC: 2.07906 cumulative IPC: 1.76903 (Simulation time: 3 hr 45 min 15 sec) 
Finished CPU 0 instructions: 100000000 cycles: 56528152 cummulative IPC: 1.76903 (Simulation time: 3 hr 45 min 15 sec) 

ChampSim completed all CPUs

Region of Interest Statistics

CPU 0 cummulative IPC: 1.76903 instructions: 100000000 cycles: 56528152
LLC TOTAL     ACCESS:    1161494  HIT:     926078  MISS:     235416
LLC LOAD      ACCESS:     133669  HIT:     126952  MISS:       6717
LLC RFO       ACCESS:      47548  HIT:      16199  MISS:      31349
LLC PREFETCH  ACCESS:     680454  HIT:     500014  MISS:     180440
LLC WRITEBACK ACCESS:     299823  HIT:     282913  MISS:      16910
