
*** ChampSim Multicore Out-of-Order Simulator ***

Warmup Instructions: 10000000
Simulation Instructions: 100000000
Configuration: 2
Number of CPUs: 1
LLC sets: 2048
LLC ways: 16
Off-chip DRAM Channels: 1 Width: 64-bit Data Rate: 1600 MT/s

CPU 0 runs /datasets/cs240c-wi22-a00-public/data/Assignment2-gz/bzip2_259B.trace.gz
CPU 0 L1D next line prefetcher
CPU 0 L2C IP-based stride prefetcher
config 2, num_core 1, llc_sets 2048
Heartbeat CPU 0 instructions: 1000002 cycles: 428875 heartbeat IPC: 2.33169 cumulative IPC: 2.33169 (Simulation time: 0 hr 0 min 34 sec) 
Heartbeat CPU 0 instructions: 2000003 cycles: 861057 heartbeat IPC: 2.31384 cumulative IPC: 2.32273 (Simulation time: 0 hr 1 min 9 sec) 
Heartbeat CPU 0 instructions: 3000001 cycles: 1286790 heartbeat IPC: 2.34889 cumulative IPC: 2.33138 (Simulation time: 0 hr 1 min 46 sec) 
Heartbeat CPU 0 instructions: 4000000 cycles: 1685065 heartbeat IPC: 2.51083 cumulative IPC: 2.3738 (Simulation time: 0 hr 2 min 16 sec) 
Heartbeat CPU 0 instructions: 5000001 cycles: 2103498 heartbeat IPC: 2.38987 cumulative IPC: 2.37699 (Simulation time: 0 hr 2 min 46 sec) 
Heartbeat CPU 0 instructions: 6000001 cycles: 2532861 heartbeat IPC: 2.32903 cumulative IPC: 2.36886 (Simulation time: 0 hr 3 min 21 sec) 
Heartbeat CPU 0 instructions: 7000003 cycles: 2961909 heartbeat IPC: 2.33075 cumulative IPC: 2.36334 (Simulation time: 0 hr 3 min 52 sec) 
Heartbeat CPU 0 instructions: 8000000 cycles: 3391722 heartbeat IPC: 2.32659 cumulative IPC: 2.35868 (Simulation time: 0 hr 4 min 24 sec) 
Heartbeat CPU 0 instructions: 9000000 cycles: 3819848 heartbeat IPC: 2.33576 cumulative IPC: 2.35611 (Simulation time: 0 hr 4 min 59 sec) 
Heartbeat CPU 0 instructions: 10000002 cycles: 4193920 heartbeat IPC: 2.67329 cumulative IPC: 2.3844 (Simulation time: 0 hr 5 min 26 sec) 

Warmup complete CPU 0 instructions: 10000002 cycles: 4193920 (Simulation time: 0 hr 5 min 26 sec) 

Heartbeat CPU 0 instructions: 11000002 cycles: 5082526 heartbeat IPC: 1.12536 cumulative IPC: 1.12536 (Simulation time: 0 hr 5 min 57 sec) 
Heartbeat CPU 0 instructions: 12000000 cycles: 6170288 heartbeat IPC: 0.919317 cumulative IPC: 1.01196 (Simulation time: 0 hr 7 min 29 sec) 
Heartbeat CPU 0 instructions: 13000002 cycles: 7104058 heartbeat IPC: 1.07093 cumulative IPC: 1.03088 (Simulation time: 0 hr 10 min 12 sec) 
Heartbeat CPU 0 instructions: 14000003 cycles: 8100325 heartbeat IPC: 1.00375 cumulative IPC: 1.02396 (Simulation time: 0 hr 12 min 57 sec) 
Heartbeat CPU 0 instructions: 15000002 cycles: 9175343 heartbeat IPC: 0.930216 cumulative IPC: 1.00373 (Simulation time: 0 hr 15 min 48 sec) 
Heartbeat CPU 0 instructions: 16000000 cycles: 10224153 heartbeat IPC: 0.95346 cumulative IPC: 0.994986 (Simulation time: 0 hr 18 min 26 sec) 
Heartbeat CPU 0 instructions: 17000002 cycles: 11379550 heartbeat IPC: 0.865505 cumulative IPC: 0.974167 (Simulation time: 0 hr 21 min 11 sec) 
Heartbeat CPU 0 instructions: 18000001 cycles: 12578021 heartbeat IPC: 0.834396 cumulative IPC: 0.954187 (Simulation time: 0 hr 23 min 51 sec) 
Heartbeat CPU 0 instructions: 19000003 cycles: 13663415 heartbeat IPC: 0.921326 cumulative IPC: 0.95042 (Simulation time: 0 hr 26 min 30 sec) 
Heartbeat CPU 0 instructions: 20000000 cycles: 14743475 heartbeat IPC: 0.925872 cumulative IPC: 0.947907 (Simulation time: 0 hr 28 min 51 sec) 
Heartbeat CPU 0 instructions: 21000001 cycles: 15666863 heartbeat IPC: 1.08297 cumulative IPC: 0.958777 (Simulation time: 0 hr 31 min 11 sec) 
Heartbeat CPU 0 instructions: 22000001 cycles: 16583694 heartbeat IPC: 1.09071 cumulative IPC: 0.968541 (Simulation time: 0 hr 33 min 40 sec) 
Heartbeat CPU 0 instructions: 23000002 cycles: 17487061 heartbeat IPC: 1.10697 cumulative IPC: 0.977948 (Simulation time: 0 hr 36 min 9 sec) 
Heartbeat CPU 0 instructions: 24000000 cycles: 18393535 heartbeat IPC: 1.10317 cumulative IPC: 0.985942 (Simulation time: 0 hr 38 min 23 sec) 
Heartbeat CPU 0 instructions: 25000000 cycles: 19292086 heartbeat IPC: 1.1129 cumulative IPC: 0.993498 (Simulation time: 0 hr 40 min 51 sec) 
Heartbeat CPU 0 instructions: 26000000 cycles: 20239919 heartbeat IPC: 1.05504 cumulative IPC: 0.997133 (Simulation time: 0 hr 43 min 24 sec) 
Heartbeat CPU 0 instructions: 27000003 cycles: 21188623 heartbeat IPC: 1.05407 cumulative IPC: 1.00031 (Simulation time: 0 hr 45 min 51 sec) 
Heartbeat CPU 0 instructions: 28000000 cycles: 22100753 heartbeat IPC: 1.09633 cumulative IPC: 1.0052 (Simulation time: 0 hr 48 min 18 sec) 
Heartbeat CPU 0 instructions: 29000000 cycles: 23007492 heartbeat IPC: 1.10285 cumulative IPC: 1.00991 (Simulation time: 0 hr 50 min 42 sec) 
Heartbeat CPU 0 instructions: 30000001 cycles: 23973643 heartbeat IPC: 1.03504 cumulative IPC: 1.01114 (Simulation time: 0 hr 53 min 1 sec) 
Heartbeat CPU 0 instructions: 31000001 cycles: 24877498 heartbeat IPC: 1.10637 cumulative IPC: 1.0153 (Simulation time: 0 hr 55 min 23 sec) 
Heartbeat CPU 0 instructions: 32000000 cycles: 25772932 heartbeat IPC: 1.11678 cumulative IPC: 1.01951 (Simulation time: 0 hr 57 min 50 sec) 
Heartbeat CPU 0 instructions: 33000002 cycles: 26886665 heartbeat IPC: 0.897883 cumulative IPC: 1.01354 (Simulation time: 1 hr 0 min 10 sec) 
Heartbeat CPU 0 instructions: 34000003 cycles: 28109712 heartbeat IPC: 0.817631 cumulative IPC: 1.00352 (Simulation time: 1 hr 2 min 45 sec) 
Heartbeat CPU 0 instructions: 35000001 cycles: 29128937 heartbeat IPC: 0.981136 cumulative IPC: 1.00261 (Simulation time: 1 hr 5 min 23 sec) 
Heartbeat CPU 0 instructions: 36000000 cycles: 30300110 heartbeat IPC: 0.853844 cumulative IPC: 0.995932 (Simulation time: 1 hr 7 min 43 sec) 
Heartbeat CPU 0 instructions: 37000002 cycles: 31343121 heartbeat IPC: 0.958765 cumulative IPC: 0.994504 (Simulation time: 1 hr 9 min 53 sec) 
Heartbeat CPU 0 instructions: 38000003 cycles: 32457507 heartbeat IPC: 0.897356 cumulative IPC: 0.990674 (Simulation time: 1 hr 12 min 10 sec) 
Heartbeat CPU 0 instructions: 39000001 cycles: 33601478 heartbeat IPC: 0.874146 cumulative IPC: 0.986141 (Simulation time: 1 hr 14 min 32 sec) 
Heartbeat CPU 0 instructions: 40000000 cycles: 34670029 heartbeat IPC: 0.935846 cumulative IPC: 0.984378 (Simulation time: 1 hr 16 min 51 sec) 
Heartbeat CPU 0 instructions: 41000001 cycles: 35858790 heartbeat IPC: 0.841213 cumulative IPC: 0.979003 (Simulation time: 1 hr 19 min 13 sec) 
Heartbeat CPU 0 instructions: 42000000 cycles: 37067121 heartbeat IPC: 0.827587 cumulative IPC: 0.973437 (Simulation time: 1 hr 21 min 34 sec) 
Heartbeat CPU 0 instructions: 43000003 cycles: 38283629 heartbeat IPC: 0.822028 cumulative IPC: 0.968034 (Simulation time: 1 hr 23 min 48 sec) 
Heartbeat CPU 0 instructions: 44000000 cycles: 39496442 heartbeat IPC: 0.824527 cumulative IPC: 0.963104 (Simulation time: 1 hr 26 min 3 sec) 
Heartbeat CPU 0 instructions: 45000000 cycles: 40718180 heartbeat IPC: 0.818506 cumulative IPC: 0.958267 (Simulation time: 1 hr 28 min 13 sec) 
Heartbeat CPU 0 instructions: 46000002 cycles: 41957007 heartbeat IPC: 0.807217 cumulative IPC: 0.953312 (Simulation time: 1 hr 30 min 14 sec) 
Heartbeat CPU 0 instructions: 47000000 cycles: 43187094 heartbeat IPC: 0.812949 cumulative IPC: 0.948884 (Simulation time: 1 hr 32 min 17 sec) 
Heartbeat CPU 0 instructions: 48000000 cycles: 44424975 heartbeat IPC: 0.807832 cumulative IPC: 0.944544 (Simulation time: 1 hr 34 min 8 sec) 
Heartbeat CPU 0 instructions: 49000003 cycles: 45693437 heartbeat IPC: 0.788359 cumulative IPC: 0.93977 (Simulation time: 1 hr 36 min 3 sec) 
Heartbeat CPU 0 instructions: 50000001 cycles: 46731963 heartbeat IPC: 0.962901 cumulative IPC: 0.940335 (Simulation time: 1 hr 38 min 1 sec) 
Heartbeat CPU 0 instructions: 51000002 cycles: 47895546 heartbeat IPC: 0.859415 cumulative IPC: 0.93818 (Simulation time: 1 hr 40 min 11 sec) 
Heartbeat CPU 0 instructions: 52000000 cycles: 49013710 heartbeat IPC: 0.894321 cumulative IPC: 0.937086 (Simulation time: 1 hr 42 min 16 sec) 
Heartbeat CPU 0 instructions: 53000001 cycles: 50209209 heartbeat IPC: 0.836472 cumulative IPC: 0.934472 (Simulation time: 1 hr 44 min 34 sec) 
Heartbeat CPU 0 instructions: 54000000 cycles: 51433359 heartbeat IPC: 0.816893 cumulative IPC: 0.931425 (Simulation time: 1 hr 46 min 38 sec) 
Heartbeat CPU 0 instructions: 55000000 cycles: 52584963 heartbeat IPC: 0.868354 cumulative IPC: 0.929924 (Simulation time: 1 hr 48 min 50 sec) 
Heartbeat CPU 0 instructions: 56000000 cycles: 53808570 heartbeat IPC: 0.817256 cumulative IPC: 0.927145 (Simulation time: 1 hr 50 min 56 sec) 
Heartbeat CPU 0 instructions: 57000000 cycles: 55029619 heartbeat IPC: 0.818968 cumulative IPC: 0.924547 (Simulation time: 1 hr 53 min 7 sec) 
Heartbeat CPU 0 instructions: 58000002 cycles: 56061073 heartbeat IPC: 0.969507 cumulative IPC: 0.925441 (Simulation time: 1 hr 55 min 8 sec) 
Heartbeat CPU 0 instructions: 59000000 cycles: 57161970 heartbeat IPC: 0.908348 cumulative IPC: 0.925086 (Simulation time: 1 hr 57 min 16 sec) 
Heartbeat CPU 0 instructions: 60000000 cycles: 58340664 heartbeat IPC: 0.848397 cumulative IPC: 0.923416 (Simulation time: 1 hr 59 min 24 sec) 
Heartbeat CPU 0 instructions: 61000000 cycles: 59484804 heartbeat IPC: 0.874019 cumulative IPC: 0.922394 (Simulation time: 2 hr 1 min 47 sec) 
Heartbeat CPU 0 instructions: 62000002 cycles: 60328138 heartbeat IPC: 1.18577 cumulative IPC: 0.926351 (Simulation time: 2 hr 3 min 54 sec) 
Heartbeat CPU 0 instructions: 63000003 cycles: 61219621 heartbeat IPC: 1.12173 cumulative IPC: 0.929406 (Simulation time: 2 hr 6 min 17 sec) 
Heartbeat CPU 0 instructions: 64000000 cycles: 62271491 heartbeat IPC: 0.950685 cumulative IPC: 0.929791 (Simulation time: 2 hr 8 min 50 sec) 
Heartbeat CPU 0 instructions: 65000003 cycles: 63256253 heartbeat IPC: 1.01548 cumulative IPC: 0.93122 (Simulation time: 2 hr 11 min 39 sec) 
Heartbeat CPU 0 instructions: 66000003 cycles: 64239120 heartbeat IPC: 1.01743 cumulative IPC: 0.932631 (Simulation time: 2 hr 14 min 35 sec) 
Heartbeat CPU 0 instructions: 67000003 cycles: 65303024 heartbeat IPC: 0.939934 cumulative IPC: 0.932758 (Simulation time: 2 hr 17 min 21 sec) 
Heartbeat CPU 0 instructions: 68000000 cycles: 66417685 heartbeat IPC: 0.897131 cumulative IPC: 0.93212 (Simulation time: 2 hr 20 min 10 sec) 
Heartbeat CPU 0 instructions: 69000003 cycles: 67524902 heartbeat IPC: 0.903168 cumulative IPC: 0.931614 (Simulation time: 2 hr 22 min 57 sec) 
Heartbeat CPU 0 instructions: 70000003 cycles: 68815487 heartbeat IPC: 0.774842 cumulative IPC: 0.928483 (Simulation time: 2 hr 25 min 38 sec) 
Heartbeat CPU 0 instructions: 71000000 cycles: 70189470 heartbeat IPC: 0.727809 cumulative IPC: 0.924305 (Simulation time: 2 hr 28 min 18 sec) 
Heartbeat CPU 0 instructions: 72000000 cycles: 71345754 heartbeat IPC: 0.864839 cumulative IPC: 0.923281 (Simulation time: 2 hr 30 min 45 sec) 
Heartbeat CPU 0 instructions: 73000003 cycles: 72644882 heartbeat IPC: 0.769749 cumulative IPC: 0.920367 (Simulation time: 2 hr 33 min 8 sec) 
Heartbeat CPU 0 instructions: 74000001 cycles: 73900021 heartbeat IPC: 0.796723 cumulative IPC: 0.918141 (Simulation time: 2 hr 35 min 52 sec) 
Heartbeat CPU 0 instructions: 75000000 cycles: 75060281 heartbeat IPC: 0.861875 cumulative IPC: 0.917219 (Simulation time: 2 hr 38 min 31 sec) 
Heartbeat CPU 0 instructions: 76000000 cycles: 76138673 heartbeat IPC: 0.927307 cumulative IPC: 0.917371 (Simulation time: 2 hr 40 min 53 sec) 
Heartbeat CPU 0 instructions: 77000003 cycles: 77098160 heartbeat IPC: 1.04223 cumulative IPC: 0.919014 (Simulation time: 2 hr 43 min 21 sec) 
Heartbeat CPU 0 instructions: 78000000 cycles: 78051970 heartbeat IPC: 1.04842 cumulative IPC: 0.920685 (Simulation time: 2 hr 46 min 2 sec) 
Heartbeat CPU 0 instructions: 79000003 cycles: 79108456 heartbeat IPC: 0.946537 cumulative IPC: 0.92105 (Simulation time: 2 hr 48 min 39 sec) 
Heartbeat CPU 0 instructions: 80000000 cycles: 80326953 heartbeat IPC: 0.820681 cumulative IPC: 0.919443 (Simulation time: 2 hr 51 min 22 sec) 
Heartbeat CPU 0 instructions: 81000001 cycles: 81493861 heartbeat IPC: 0.856966 cumulative IPC: 0.9185 (Simulation time: 2 hr 53 min 59 sec) 
Heartbeat CPU 0 instructions: 82000000 cycles: 82627242 heartbeat IPC: 0.882315 cumulative IPC: 0.917977 (Simulation time: 2 hr 56 min 24 sec) 
Heartbeat CPU 0 instructions: 83000002 cycles: 83720671 heartbeat IPC: 0.914556 cumulative IPC: 0.91793 (Simulation time: 2 hr 58 min 56 sec) 
Heartbeat CPU 0 instructions: 84000000 cycles: 84667977 heartbeat IPC: 1.05562 cumulative IPC: 0.919551 (Simulation time: 3 hr 1 min 30 sec) 
Heartbeat CPU 0 instructions: 85000003 cycles: 85614774 heartbeat IPC: 1.0562 cumulative IPC: 0.92114 (Simulation time: 3 hr 3 min 55 sec) 
Heartbeat CPU 0 instructions: 86000003 cycles: 86665510 heartbeat IPC: 0.951714 cumulative IPC: 0.921529 (Simulation time: 3 hr 6 min 21 sec) 
Heartbeat CPU 0 instructions: 87000002 cycles: 87734604 heartbeat IPC: 0.935371 cumulative IPC: 0.921707 (Simulation time: 3 hr 8 min 41 sec) 
Heartbeat CPU 0 instructions: 88000000 cycles: 88833343 heartbeat IPC: 0.910132 cumulative IPC: 0.921556 (Simulation time: 3 hr 11 min 10 sec) 
Heartbeat CPU 0 instructions: 89000002 cycles: 89839713 heartbeat IPC: 0.993672 cumulative IPC: 0.922404 (Simulation time: 3 hr 13 min 27 sec) 
Heartbeat CPU 0 instructions: 90000001 cycles: 90962869 heartbeat IPC: 0.890347 cumulative IPC: 0.921989 (Simulation time: 3 hr 15 min 40 sec) 
Heartbeat CPU 0 instructions: 91000002 cycles: 92075702 heartbeat IPC: 0.898608 cumulative IPC: 0.921693 (Simulation time: 3 hr 17 min 57 sec) 
Heartbeat CPU 0 instructions: 92000000 cycles: 93113961 heartbeat IPC: 0.963149 cumulative IPC: 0.922177 (Simulation time: 3 hr 20 min 3 sec) 
Heartbeat CPU 0 instructions: 93000000 cycles: 94301750 heartbeat IPC: 0.8419 cumulative IPC: 0.921119 (Simulation time: 3 hr 22 min 19 sec) 
Heartbeat CPU 0 instructions: 94000003 cycles: 95477949 heartbeat IPC: 0.850199 cumulative IPC: 0.920205 (Simulation time: 3 hr 24 min 52 sec) 
Heartbeat CPU 0 instructions: 95000002 cycles: 96662365 heartbeat IPC: 0.844297 cumulative IPC: 0.919232 (Simulation time: 3 hr 27 min 37 sec) 
Heartbeat CPU 0 instructions: 96000000 cycles: 97831666 heartbeat IPC: 0.85521 cumulative IPC: 0.918433 (Simulation time: 3 hr 29 min 53 sec) 
Heartbeat CPU 0 instructions: 97000002 cycles: 99048588 heartbeat IPC: 0.821747 cumulative IPC: 0.917193 (Simulation time: 3 hr 32 min 23 sec) 
Heartbeat CPU 0 instructions: 98000000 cycles: 100281048 heartbeat IPC: 0.811384 cumulative IPC: 0.915835 (Simulation time: 3 hr 34 min 33 sec) 
Heartbeat CPU 0 instructions: 99000000 cycles: 101520392 heartbeat IPC: 0.806879 cumulative IPC: 0.914448 (Simulation time: 3 hr 36 min 53 sec) 
Heartbeat CPU 0 instructions: 100000000 cycles: 102762449 heartbeat IPC: 0.805116 cumulative IPC: 0.91307 (Simulation time: 3 hr 39 min 16 sec) 
Heartbeat CPU 0 instructions: 101000003 cycles: 103910450 heartbeat IPC: 0.871082 cumulative IPC: 0.912587 (Simulation time: 3 hr 41 min 46 sec) 
Heartbeat CPU 0 instructions: 102000000 cycles: 105029025 heartbeat IPC: 0.893992 cumulative IPC: 0.912381 (Simulation time: 3 hr 43 min 49 sec) 
Heartbeat CPU 0 instructions: 103000000 cycles: 106130379 heartbeat IPC: 0.907973 cumulative IPC: 0.912333 (Simulation time: 3 hr 46 min 19 sec) 
Heartbeat CPU 0 instructions: 104000000 cycles: 107283254 heartbeat IPC: 0.867397 cumulative IPC: 0.91183 (Simulation time: 3 hr 48 min 43 sec) 
Heartbeat CPU 0 instructions: 105000002 cycles: 108494483 heartbeat IPC: 0.825609 cumulative IPC: 0.910829 (Simulation time: 3 hr 50 min 56 sec) 
Heartbeat CPU 0 instructions: 106000001 cycles: 109628039 heartbeat IPC: 0.882179 cumulative IPC: 0.910521 (Simulation time: 3 hr 53 min 8 sec) 
Heartbeat CPU 0 instructions: 107000000 cycles: 110831644 heartbeat IPC: 0.830837 cumulative IPC: 0.909622 (Simulation time: 3 hr 55 min 21 sec) 
Heartbeat CPU 0 instructions: 108000000 cycles: 112029980 heartbeat IPC: 0.83449 cumulative IPC: 0.908787 (Simulation time: 3 hr 57 min 48 sec) 
Heartbeat CPU 0 instructions: 109000000 cycles: 113042328 heartbeat IPC: 0.987803 cumulative IPC: 0.909522 (Simulation time: 4 hr 0 min 0 sec) 
Heartbeat CPU 0 instructions: 110000000 cycles: 114202659 heartbeat IPC: 0.861823 cumulative IPC: 0.909019 (Simulation time: 4 hr 2 min 14 sec) 
Finished CPU 0 instructions: 100000002 cycles: 110008741 cummulative IPC: 0.909019 (Simulation time: 4 hr 2 min 14 sec) 

ChampSim completed all CPUs

Region of Interest Statistics

CPU 0 cummulative IPC: 0.909019 instructions: 100000002 cycles: 110008741
LLC TOTAL     ACCESS:    1373518  HIT:     960544  MISS:     412974
LLC LOAD      ACCESS:     396201  HIT:     343454  MISS:      52747
LLC RFO       ACCESS:     104382  HIT:      48514  MISS:      55868
LLC PREFETCH  ACCESS:     675953  HIT:     463136  MISS:     212817
LLC WRITEBACK ACCESS:     196982  HIT:     105440  MISS:      91542
