
*** ChampSim Multicore Out-of-Order Simulator ***

Warmup Instructions: 10000000
Simulation Instructions: 100000000
Configuration: 2
Number of CPUs: 1
LLC sets: 2048
LLC ways: 16
Off-chip DRAM Channels: 1 Width: 64-bit Data Rate: 1600 MT/s

CPU 0 runs /datasets/cs240c-wi22-a00-public/data/Assignment2-gz/gcc_56B.trace.gz
CPU 0 L1D next line prefetcher
CPU 0 L2C IP-based stride prefetcher
config 2, num_core 1, llc_sets 2048
Heartbeat CPU 0 instructions: 1000003 cycles: 954162 heartbeat IPC: 1.04804 cumulative IPC: 1.04804 (Simulation time: 0 hr 0 min 37 sec) 
Heartbeat CPU 0 instructions: 2000001 cycles: 1898360 heartbeat IPC: 1.0591 cumulative IPC: 1.05354 (Simulation time: 0 hr 1 min 21 sec) 
Heartbeat CPU 0 instructions: 3000001 cycles: 2885604 heartbeat IPC: 1.01292 cumulative IPC: 1.03964 (Simulation time: 0 hr 2 min 1 sec) 
Heartbeat CPU 0 instructions: 4000000 cycles: 3848232 heartbeat IPC: 1.03882 cumulative IPC: 1.03944 (Simulation time: 0 hr 2 min 38 sec) 
Heartbeat CPU 0 instructions: 5000002 cycles: 4737712 heartbeat IPC: 1.12425 cumulative IPC: 1.05536 (Simulation time: 0 hr 3 min 11 sec) 
Heartbeat CPU 0 instructions: 6000000 cycles: 5685667 heartbeat IPC: 1.0549 cumulative IPC: 1.05529 (Simulation time: 0 hr 3 min 45 sec) 
Heartbeat CPU 0 instructions: 7000000 cycles: 6649902 heartbeat IPC: 1.03709 cumulative IPC: 1.05265 (Simulation time: 0 hr 4 min 26 sec) 
Heartbeat CPU 0 instructions: 8000000 cycles: 7611125 heartbeat IPC: 1.04034 cumulative IPC: 1.05109 (Simulation time: 0 hr 5 min 5 sec) 
Heartbeat CPU 0 instructions: 9000000 cycles: 8622597 heartbeat IPC: 0.988658 cumulative IPC: 1.04377 (Simulation time: 0 hr 5 min 45 sec) 
Heartbeat CPU 0 instructions: 10000002 cycles: 9583108 heartbeat IPC: 1.04111 cumulative IPC: 1.0435 (Simulation time: 0 hr 6 min 35 sec) 

Warmup complete CPU 0 instructions: 10000002 cycles: 9583108 (Simulation time: 0 hr 6 min 35 sec) 

Heartbeat CPU 0 instructions: 11000000 cycles: 10925654 heartbeat IPC: 0.744852 cumulative IPC: 0.744852 (Simulation time: 0 hr 9 min 26 sec) 
Heartbeat CPU 0 instructions: 12000000 cycles: 12345255 heartbeat IPC: 0.704423 cumulative IPC: 0.724074 (Simulation time: 0 hr 12 min 20 sec) 
Heartbeat CPU 0 instructions: 13000001 cycles: 13726413 heartbeat IPC: 0.724031 cumulative IPC: 0.724059 (Simulation time: 0 hr 15 min 13 sec) 
Heartbeat CPU 0 instructions: 14000000 cycles: 15053244 heartbeat IPC: 0.753675 cumulative IPC: 0.731243 (Simulation time: 0 hr 18 min 0 sec) 
Heartbeat CPU 0 instructions: 15000003 cycles: 16421676 heartbeat IPC: 0.730766 cumulative IPC: 0.731147 (Simulation time: 0 hr 20 min 59 sec) 
Heartbeat CPU 0 instructions: 16000000 cycles: 17739938 heartbeat IPC: 0.758572 cumulative IPC: 0.73558 (Simulation time: 0 hr 23 min 53 sec) 
Heartbeat CPU 0 instructions: 17000001 cycles: 19053399 heartbeat IPC: 0.761348 cumulative IPC: 0.739154 (Simulation time: 0 hr 26 min 59 sec) 
Heartbeat CPU 0 instructions: 18000000 cycles: 20435265 heartbeat IPC: 0.723658 cumulative IPC: 0.73718 (Simulation time: 0 hr 29 min 56 sec) 
Heartbeat CPU 0 instructions: 19000000 cycles: 21801985 heartbeat IPC: 0.731679 cumulative IPC: 0.736565 (Simulation time: 0 hr 32 min 51 sec) 
Heartbeat CPU 0 instructions: 20000000 cycles: 23157816 heartbeat IPC: 0.737555 cumulative IPC: 0.736664 (Simulation time: 0 hr 35 min 35 sec) 
Heartbeat CPU 0 instructions: 21000000 cycles: 24494260 heartbeat IPC: 0.748254 cumulative IPC: 0.737703 (Simulation time: 0 hr 38 min 29 sec) 
Heartbeat CPU 0 instructions: 22000000 cycles: 25812002 heartbeat IPC: 0.758874 cumulative IPC: 0.739422 (Simulation time: 0 hr 41 min 30 sec) 
Heartbeat CPU 0 instructions: 23000000 cycles: 27137821 heartbeat IPC: 0.754251 cumulative IPC: 0.740542 (Simulation time: 0 hr 44 min 28 sec) 
Heartbeat CPU 0 instructions: 24000000 cycles: 28487225 heartbeat IPC: 0.741068 cumulative IPC: 0.740579 (Simulation time: 0 hr 47 min 12 sec) 
Heartbeat CPU 0 instructions: 25000000 cycles: 29846832 heartbeat IPC: 0.735507 cumulative IPC: 0.740239 (Simulation time: 0 hr 50 min 0 sec) 
Heartbeat CPU 0 instructions: 26000002 cycles: 31245997 heartbeat IPC: 0.714713 cumulative IPC: 0.73859 (Simulation time: 0 hr 52 min 49 sec) 
Heartbeat CPU 0 instructions: 27000000 cycles: 32621799 heartbeat IPC: 0.726847 cumulative IPC: 0.737889 (Simulation time: 0 hr 55 min 29 sec) 
Heartbeat CPU 0 instructions: 28000000 cycles: 33950556 heartbeat IPC: 0.752583 cumulative IPC: 0.73869 (Simulation time: 0 hr 58 min 10 sec) 
Heartbeat CPU 0 instructions: 29000000 cycles: 35282863 heartbeat IPC: 0.750578 cumulative IPC: 0.739307 (Simulation time: 1 hr 1 min 0 sec) 
Heartbeat CPU 0 instructions: 30000000 cycles: 36619915 heartbeat IPC: 0.747914 cumulative IPC: 0.739732 (Simulation time: 1 hr 3 min 41 sec) 
Heartbeat CPU 0 instructions: 31000000 cycles: 37968140 heartbeat IPC: 0.741716 cumulative IPC: 0.739826 (Simulation time: 1 hr 6 min 35 sec) 
Heartbeat CPU 0 instructions: 32000000 cycles: 39343397 heartbeat IPC: 0.727137 cumulative IPC: 0.73924 (Simulation time: 1 hr 9 min 27 sec) 
Heartbeat CPU 0 instructions: 33000002 cycles: 40750528 heartbeat IPC: 0.710667 cumulative IPC: 0.73795 (Simulation time: 1 hr 12 min 14 sec) 
Heartbeat CPU 0 instructions: 34000002 cycles: 42115194 heartbeat IPC: 0.73278 cumulative IPC: 0.737733 (Simulation time: 1 hr 14 min 57 sec) 
Heartbeat CPU 0 instructions: 35000002 cycles: 43464959 heartbeat IPC: 0.74087 cumulative IPC: 0.737858 (Simulation time: 1 hr 17 min 46 sec) 
Heartbeat CPU 0 instructions: 36000000 cycles: 44796470 heartbeat IPC: 0.751025 cumulative IPC: 0.738356 (Simulation time: 1 hr 20 min 27 sec) 
Heartbeat CPU 0 instructions: 37000000 cycles: 46112604 heartbeat IPC: 0.759801 cumulative IPC: 0.739129 (Simulation time: 1 hr 23 min 25 sec) 
Heartbeat CPU 0 instructions: 38000002 cycles: 47449459 heartbeat IPC: 0.748026 cumulative IPC: 0.739443 (Simulation time: 1 hr 26 min 8 sec) 
Heartbeat CPU 0 instructions: 39000000 cycles: 48854866 heartbeat IPC: 0.711536 cumulative IPC: 0.738444 (Simulation time: 1 hr 28 min 50 sec) 
Heartbeat CPU 0 instructions: 40000000 cycles: 50222753 heartbeat IPC: 0.731055 cumulative IPC: 0.738195 (Simulation time: 1 hr 32 min 4 sec) 
Heartbeat CPU 0 instructions: 41000001 cycles: 51569764 heartbeat IPC: 0.742385 cumulative IPC: 0.73833 (Simulation time: 1 hr 35 min 19 sec) 
Heartbeat CPU 0 instructions: 42000003 cycles: 52905823 heartbeat IPC: 0.748471 cumulative IPC: 0.738643 (Simulation time: 1 hr 38 min 37 sec) 
Heartbeat CPU 0 instructions: 43000001 cycles: 54248659 heartbeat IPC: 0.744691 cumulative IPC: 0.738824 (Simulation time: 1 hr 41 min 50 sec) 
Heartbeat CPU 0 instructions: 44000000 cycles: 55582634 heartbeat IPC: 0.749638 cumulative IPC: 0.739138 (Simulation time: 1 hr 44 min 50 sec) 
Heartbeat CPU 0 instructions: 45000000 cycles: 56957828 heartbeat IPC: 0.72717 cumulative IPC: 0.738791 (Simulation time: 1 hr 47 min 54 sec) 
Heartbeat CPU 0 instructions: 46000000 cycles: 58357302 heartbeat IPC: 0.714554 cumulative IPC: 0.738095 (Simulation time: 1 hr 51 min 13 sec) 
Heartbeat CPU 0 instructions: 47000002 cycles: 59738233 heartbeat IPC: 0.724151 cumulative IPC: 0.737711 (Simulation time: 1 hr 54 min 18 sec) 
Heartbeat CPU 0 instructions: 48000000 cycles: 61092403 heartbeat IPC: 0.738458 cumulative IPC: 0.737731 (Simulation time: 1 hr 57 min 10 sec) 
Heartbeat CPU 0 instructions: 49000002 cycles: 62426346 heartbeat IPC: 0.749659 cumulative IPC: 0.738032 (Simulation time: 2 hr 0 min 6 sec) 
Heartbeat CPU 0 instructions: 50000000 cycles: 63755723 heartbeat IPC: 0.752231 cumulative IPC: 0.73838 (Simulation time: 2 hr 3 min 0 sec) 
Heartbeat CPU 0 instructions: 51000000 cycles: 65120445 heartbeat IPC: 0.73275 cumulative IPC: 0.738242 (Simulation time: 2 hr 6 min 3 sec) 
Heartbeat CPU 0 instructions: 52000000 cycles: 66520548 heartbeat IPC: 0.714233 cumulative IPC: 0.737652 (Simulation time: 2 hr 8 min 53 sec) 
Heartbeat CPU 0 instructions: 53000001 cycles: 67864760 heartbeat IPC: 0.743931 cumulative IPC: 0.737796 (Simulation time: 2 hr 11 min 46 sec) 
Heartbeat CPU 0 instructions: 54000000 cycles: 69189391 heartbeat IPC: 0.754926 cumulative IPC: 0.738177 (Simulation time: 2 hr 14 min 31 sec) 
Heartbeat CPU 0 instructions: 55000001 cycles: 70504485 heartbeat IPC: 0.760403 cumulative IPC: 0.738657 (Simulation time: 2 hr 17 min 26 sec) 
Heartbeat CPU 0 instructions: 56000000 cycles: 71836762 heartbeat IPC: 0.750594 cumulative IPC: 0.738912 (Simulation time: 2 hr 20 min 14 sec) 
Heartbeat CPU 0 instructions: 57000001 cycles: 73180803 heartbeat IPC: 0.744026 cumulative IPC: 0.73902 (Simulation time: 2 hr 22 min 56 sec) 
Heartbeat CPU 0 instructions: 58000000 cycles: 74567202 heartbeat IPC: 0.721292 cumulative IPC: 0.738642 (Simulation time: 2 hr 25 min 39 sec) 
Heartbeat CPU 0 instructions: 59000000 cycles: 75972366 heartbeat IPC: 0.711661 cumulative IPC: 0.738071 (Simulation time: 2 hr 28 min 32 sec) 
Heartbeat CPU 0 instructions: 60000000 cycles: 77359310 heartbeat IPC: 0.72101 cumulative IPC: 0.737722 (Simulation time: 2 hr 31 min 7 sec) 
Heartbeat CPU 0 instructions: 61000000 cycles: 78699350 heartbeat IPC: 0.746246 cumulative IPC: 0.737887 (Simulation time: 2 hr 33 min 39 sec) 
Heartbeat CPU 0 instructions: 62000002 cycles: 80072891 heartbeat IPC: 0.728047 cumulative IPC: 0.737696 (Simulation time: 2 hr 36 min 8 sec) 
Heartbeat CPU 0 instructions: 63000003 cycles: 81400033 heartbeat IPC: 0.7535 cumulative IPC: 0.737988 (Simulation time: 2 hr 38 min 44 sec) 
Heartbeat CPU 0 instructions: 64000000 cycles: 82731295 heartbeat IPC: 0.751165 cumulative IPC: 0.738227 (Simulation time: 2 hr 41 min 16 sec) 
Heartbeat CPU 0 instructions: 65000000 cycles: 84089263 heartbeat IPC: 0.736394 cumulative IPC: 0.738194 (Simulation time: 2 hr 43 min 55 sec) 
Heartbeat CPU 0 instructions: 66000002 cycles: 85491100 heartbeat IPC: 0.713351 cumulative IPC: 0.737735 (Simulation time: 2 hr 46 min 58 sec) 
Heartbeat CPU 0 instructions: 67000002 cycles: 86888639 heartbeat IPC: 0.715544 cumulative IPC: 0.737334 (Simulation time: 2 hr 50 min 10 sec) 
Heartbeat CPU 0 instructions: 68000000 cycles: 88252500 heartbeat IPC: 0.733211 cumulative IPC: 0.737263 (Simulation time: 2 hr 53 min 7 sec) 
Heartbeat CPU 0 instructions: 69000000 cycles: 89592402 heartbeat IPC: 0.746323 cumulative IPC: 0.737414 (Simulation time: 2 hr 55 min 55 sec) 
Heartbeat CPU 0 instructions: 70000000 cycles: 90931028 heartbeat IPC: 0.747035 cumulative IPC: 0.737573 (Simulation time: 2 hr 58 min 36 sec) 
Heartbeat CPU 0 instructions: 71000003 cycles: 92283389 heartbeat IPC: 0.73945 cumulative IPC: 0.737603 (Simulation time: 3 hr 1 min 20 sec) 
Heartbeat CPU 0 instructions: 72000000 cycles: 93635253 heartbeat IPC: 0.739717 cumulative IPC: 0.737637 (Simulation time: 3 hr 3 min 52 sec) 
Heartbeat CPU 0 instructions: 73000003 cycles: 95015939 heartbeat IPC: 0.72428 cumulative IPC: 0.737421 (Simulation time: 3 hr 6 min 27 sec) 
Heartbeat CPU 0 instructions: 74000001 cycles: 96425337 heartbeat IPC: 0.709521 cumulative IPC: 0.736969 (Simulation time: 3 hr 8 min 55 sec) 
Heartbeat CPU 0 instructions: 75000003 cycles: 97811623 heartbeat IPC: 0.721353 cumulative IPC: 0.736723 (Simulation time: 3 hr 11 min 42 sec) 
Heartbeat CPU 0 instructions: 76000000 cycles: 99166274 heartbeat IPC: 0.738195 cumulative IPC: 0.736746 (Simulation time: 3 hr 14 min 26 sec) 
Heartbeat CPU 0 instructions: 77000003 cycles: 100514213 heartbeat IPC: 0.741876 cumulative IPC: 0.736822 (Simulation time: 3 hr 16 min 58 sec) 
Heartbeat CPU 0 instructions: 78000001 cycles: 101859381 heartbeat IPC: 0.7434 cumulative IPC: 0.736917 (Simulation time: 3 hr 19 min 34 sec) 
Heartbeat CPU 0 instructions: 79000000 cycles: 103227549 heartbeat IPC: 0.730904 cumulative IPC: 0.73683 (Simulation time: 3 hr 22 min 2 sec) 
Heartbeat CPU 0 instructions: 80000000 cycles: 104588361 heartbeat IPC: 0.734855 cumulative IPC: 0.736801 (Simulation time: 3 hr 24 min 32 sec) 
Heartbeat CPU 0 instructions: 81000002 cycles: 105977819 heartbeat IPC: 0.719707 cumulative IPC: 0.736555 (Simulation time: 3 hr 27 min 9 sec) 
Heartbeat CPU 0 instructions: 82000000 cycles: 107361656 heartbeat IPC: 0.722627 cumulative IPC: 0.736358 (Simulation time: 3 hr 29 min 45 sec) 
Heartbeat CPU 0 instructions: 83000003 cycles: 108704796 heartbeat IPC: 0.744526 cumulative IPC: 0.736468 (Simulation time: 3 hr 32 min 22 sec) 
Heartbeat CPU 0 instructions: 84000000 cycles: 110060216 heartbeat IPC: 0.737776 cumulative IPC: 0.736486 (Simulation time: 3 hr 35 min 1 sec) 
Heartbeat CPU 0 instructions: 85000002 cycles: 111385130 heartbeat IPC: 0.754767 cumulative IPC: 0.736724 (Simulation time: 3 hr 37 min 43 sec) 
Heartbeat CPU 0 instructions: 86000003 cycles: 112701504 heartbeat IPC: 0.759663 cumulative IPC: 0.737017 (Simulation time: 3 hr 40 min 5 sec) 
Heartbeat CPU 0 instructions: 87000000 cycles: 114095755 heartbeat IPC: 0.717229 cumulative IPC: 0.736753 (Simulation time: 3 hr 42 min 26 sec) 
Heartbeat CPU 0 instructions: 88000000 cycles: 115460452 heartbeat IPC: 0.732763 cumulative IPC: 0.736701 (Simulation time: 3 hr 45 min 9 sec) 
Heartbeat CPU 0 instructions: 89000000 cycles: 116834332 heartbeat IPC: 0.727866 cumulative IPC: 0.736588 (Simulation time: 3 hr 47 min 51 sec) 
Heartbeat CPU 0 instructions: 90000000 cycles: 118164483 heartbeat IPC: 0.751794 cumulative IPC: 0.736775 (Simulation time: 3 hr 50 min 16 sec) 
Heartbeat CPU 0 instructions: 91000001 cycles: 119483964 heartbeat IPC: 0.757874 cumulative IPC: 0.737028 (Simulation time: 3 hr 52 min 49 sec) 
Heartbeat CPU 0 instructions: 92000000 cycles: 120814795 heartbeat IPC: 0.751409 cumulative IPC: 0.7372 (Simulation time: 3 hr 55 min 18 sec) 
Heartbeat CPU 0 instructions: 93000003 cycles: 122210529 heartbeat IPC: 0.716471 cumulative IPC: 0.736943 (Simulation time: 3 hr 57 min 58 sec) 
Heartbeat CPU 0 instructions: 94000000 cycles: 123567189 heartbeat IPC: 0.737102 cumulative IPC: 0.736945 (Simulation time: 4 hr 0 min 37 sec) 
Heartbeat CPU 0 instructions: 95000000 cycles: 124932766 heartbeat IPC: 0.732291 cumulative IPC: 0.73689 (Simulation time: 4 hr 3 min 11 sec) 
Heartbeat CPU 0 instructions: 96000000 cycles: 126278834 heartbeat IPC: 0.742905 cumulative IPC: 0.736959 (Simulation time: 4 hr 5 min 44 sec) 
Heartbeat CPU 0 instructions: 97000000 cycles: 127602891 heartbeat IPC: 0.755255 cumulative IPC: 0.737165 (Simulation time: 4 hr 8 min 5 sec) 
Heartbeat CPU 0 instructions: 98000003 cycles: 128929241 heartbeat IPC: 0.753951 cumulative IPC: 0.737351 (Simulation time: 4 hr 10 min 29 sec) 
Heartbeat CPU 0 instructions: 99000000 cycles: 130329475 heartbeat IPC: 0.714164 cumulative IPC: 0.737082 (Simulation time: 4 hr 12 min 46 sec) 
Heartbeat CPU 0 instructions: 100000000 cycles: 131687010 heartbeat IPC: 0.736629 cumulative IPC: 0.737077 (Simulation time: 4 hr 15 min 1 sec) 
Heartbeat CPU 0 instructions: 101000000 cycles: 133050336 heartbeat IPC: 0.7335 cumulative IPC: 0.737038 (Simulation time: 4 hr 17 min 14 sec) 
Heartbeat CPU 0 instructions: 102000001 cycles: 134379404 heartbeat IPC: 0.752408 cumulative IPC: 0.737201 (Simulation time: 4 hr 19 min 47 sec) 
Heartbeat CPU 0 instructions: 103000001 cycles: 135696555 heartbeat IPC: 0.759214 cumulative IPC: 0.737431 (Simulation time: 4 hr 22 min 10 sec) 
Heartbeat CPU 0 instructions: 104000000 cycles: 137015774 heartbeat IPC: 0.758024 cumulative IPC: 0.737644 (Simulation time: 4 hr 24 min 15 sec) 
Heartbeat CPU 0 instructions: 105000002 cycles: 138410725 heartbeat IPC: 0.716873 cumulative IPC: 0.73742 (Simulation time: 4 hr 26 min 13 sec) 
Heartbeat CPU 0 instructions: 106000000 cycles: 139830868 heartbeat IPC: 0.704153 cumulative IPC: 0.737057 (Simulation time: 4 hr 28 min 1 sec) 
Heartbeat CPU 0 instructions: 107000002 cycles: 141234254 heartbeat IPC: 0.712564 cumulative IPC: 0.736796 (Simulation time: 4 hr 29 min 58 sec) 
Heartbeat CPU 0 instructions: 108000000 cycles: 142607726 heartbeat IPC: 0.72808 cumulative IPC: 0.736706 (Simulation time: 4 hr 31 min 40 sec) 
Heartbeat CPU 0 instructions: 109000000 cycles: 143960960 heartbeat IPC: 0.738971 cumulative IPC: 0.736729 (Simulation time: 4 hr 33 min 25 sec) 
Heartbeat CPU 0 instructions: 110000000 cycles: 145307549 heartbeat IPC: 0.742617 cumulative IPC: 0.736787 (Simulation time: 4 hr 35 min 3 sec) 
Finished CPU 0 instructions: 100000003 cycles: 135724443 cummulative IPC: 0.736787 (Simulation time: 4 hr 35 min 3 sec) 

ChampSim completed all CPUs

Region of Interest Statistics

CPU 0 cummulative IPC: 0.736787 instructions: 100000003 cycles: 135724443
LLC TOTAL     ACCESS:   21346121  HIT:   21202164  MISS:     143957
LLC LOAD      ACCESS:     165905  HIT:     126303  MISS:      39602
LLC RFO       ACCESS:   10463422  HIT:   10457676  MISS:       5746
LLC PREFETCH  ACCESS:     183306  HIT:      93318  MISS:      89988
LLC WRITEBACK ACCESS:   10533488  HIT:   10524867  MISS:       8621
