
*** ChampSim Multicore Out-of-Order Simulator ***

Warmup Instructions: 10000000
Simulation Instructions: 100000000
Configuration: 2
Number of CPUs: 1
LLC sets: 2048
LLC ways: 16
Off-chip DRAM Channels: 1 Width: 64-bit Data Rate: 1600 MT/s

CPU 0 runs /datasets/cs240c-wi22-a00-public/data/Assignment2-gz/calculix_2655B.trace.gz
CPU 0 L1D next line prefetcher
CPU 0 L2C IP-based stride prefetcher
config 2, num_core 1, llc_sets 2048
Heartbeat CPU 0 instructions: 1000003 cycles: 392355 heartbeat IPC: 2.54872 cumulative IPC: 2.54872 (Simulation time: 0 hr 2 min 5 sec) 
Heartbeat CPU 0 instructions: 2000001 cycles: 785077 heartbeat IPC: 2.54633 cumulative IPC: 2.54752 (Simulation time: 0 hr 3 min 55 sec) 
Heartbeat CPU 0 instructions: 3000002 cycles: 1177595 heartbeat IPC: 2.54766 cumulative IPC: 2.54757 (Simulation time: 0 hr 5 min 53 sec) 
Heartbeat CPU 0 instructions: 4000000 cycles: 1569361 heartbeat IPC: 2.55254 cumulative IPC: 2.54881 (Simulation time: 0 hr 7 min 44 sec) 
Heartbeat CPU 0 instructions: 5000003 cycles: 1961537 heartbeat IPC: 2.54988 cumulative IPC: 2.54902 (Simulation time: 0 hr 9 min 37 sec) 
Heartbeat CPU 0 instructions: 6000003 cycles: 2353693 heartbeat IPC: 2.55001 cumulative IPC: 2.54919 (Simulation time: 0 hr 11 min 27 sec) 
Heartbeat CPU 0 instructions: 7000002 cycles: 2745875 heartbeat IPC: 2.54983 cumulative IPC: 2.54928 (Simulation time: 0 hr 13 min 21 sec) 
Heartbeat CPU 0 instructions: 8000000 cycles: 3137867 heartbeat IPC: 2.55107 cumulative IPC: 2.5495 (Simulation time: 0 hr 15 min 26 sec) 
Heartbeat CPU 0 instructions: 9000001 cycles: 3530044 heartbeat IPC: 2.54987 cumulative IPC: 2.54954 (Simulation time: 0 hr 17 min 21 sec) 
Heartbeat CPU 0 instructions: 10000000 cycles: 3921528 heartbeat IPC: 2.55438 cumulative IPC: 2.55003 (Simulation time: 0 hr 19 min 15 sec) 

Warmup complete CPU 0 instructions: 10000004 cycles: 3921529 (Simulation time: 0 hr 19 min 15 sec) 

Heartbeat CPU 0 instructions: 11000001 cycles: 4646271 heartbeat IPC: 1.3798 cumulative IPC: 1.3798 (Simulation time: 0 hr 21 min 28 sec) 
Heartbeat CPU 0 instructions: 12000000 cycles: 5371641 heartbeat IPC: 1.37861 cumulative IPC: 1.3792 (Simulation time: 0 hr 23 min 39 sec) 
Heartbeat CPU 0 instructions: 13000000 cycles: 6097544 heartbeat IPC: 1.37759 cumulative IPC: 1.37867 (Simulation time: 0 hr 25 min 53 sec) 
Heartbeat CPU 0 instructions: 14000003 cycles: 6811988 heartbeat IPC: 1.39969 cumulative IPC: 1.38386 (Simulation time: 0 hr 28 min 2 sec) 
Heartbeat CPU 0 instructions: 15000001 cycles: 7517905 heartbeat IPC: 1.41659 cumulative IPC: 1.39029 (Simulation time: 0 hr 30 min 8 sec) 
Heartbeat CPU 0 instructions: 16000000 cycles: 8271742 heartbeat IPC: 1.32655 cumulative IPC: 1.37924 (Simulation time: 0 hr 32 min 34 sec) 
Heartbeat CPU 0 instructions: 17000000 cycles: 8970534 heartbeat IPC: 1.43104 cumulative IPC: 1.38641 (Simulation time: 0 hr 34 min 45 sec) 
Heartbeat CPU 0 instructions: 18000000 cycles: 9664382 heartbeat IPC: 1.44124 cumulative IPC: 1.39304 (Simulation time: 0 hr 36 min 51 sec) 
Heartbeat CPU 0 instructions: 19000000 cycles: 10352938 heartbeat IPC: 1.45231 cumulative IPC: 1.39938 (Simulation time: 0 hr 39 min 8 sec) 
Heartbeat CPU 0 instructions: 20000000 cycles: 11053483 heartbeat IPC: 1.42746 cumulative IPC: 1.40214 (Simulation time: 0 hr 41 min 28 sec) 
Heartbeat CPU 0 instructions: 21000000 cycles: 11752493 heartbeat IPC: 1.43059 cumulative IPC: 1.40468 (Simulation time: 0 hr 43 min 42 sec) 
Heartbeat CPU 0 instructions: 22000001 cycles: 12506712 heartbeat IPC: 1.32588 cumulative IPC: 1.39776 (Simulation time: 0 hr 46 min 7 sec) 
Heartbeat CPU 0 instructions: 23000000 cycles: 13221757 heartbeat IPC: 1.39851 cumulative IPC: 1.39781 (Simulation time: 0 hr 48 min 14 sec) 
Heartbeat CPU 0 instructions: 24000000 cycles: 13925429 heartbeat IPC: 1.42112 cumulative IPC: 1.39945 (Simulation time: 0 hr 50 min 29 sec) 
Heartbeat CPU 0 instructions: 25000003 cycles: 14639551 heartbeat IPC: 1.40033 cumulative IPC: 1.39951 (Simulation time: 0 hr 52 min 36 sec) 
Heartbeat CPU 0 instructions: 26000001 cycles: 15338049 heartbeat IPC: 1.43164 cumulative IPC: 1.40148 (Simulation time: 0 hr 54 min 47 sec) 
Heartbeat CPU 0 instructions: 27000000 cycles: 16063096 heartbeat IPC: 1.37922 cumulative IPC: 1.40015 (Simulation time: 0 hr 56 min 56 sec) 
Heartbeat CPU 0 instructions: 28000000 cycles: 16786098 heartbeat IPC: 1.38312 cumulative IPC: 1.39919 (Simulation time: 0 hr 59 min 9 sec) 
Heartbeat CPU 0 instructions: 29000003 cycles: 17483437 heartbeat IPC: 1.43403 cumulative IPC: 1.40098 (Simulation time: 1 hr 1 min 21 sec) 
Heartbeat CPU 0 instructions: 30000001 cycles: 18189667 heartbeat IPC: 1.41597 cumulative IPC: 1.40172 (Simulation time: 1 hr 3 min 34 sec) 
Heartbeat CPU 0 instructions: 31000002 cycles: 18892034 heartbeat IPC: 1.42376 cumulative IPC: 1.40276 (Simulation time: 1 hr 5 min 36 sec) 
Heartbeat CPU 0 instructions: 32000000 cycles: 19578063 heartbeat IPC: 1.45766 cumulative IPC: 1.40516 (Simulation time: 1 hr 7 min 47 sec) 
Heartbeat CPU 0 instructions: 33000003 cycles: 20303919 heartbeat IPC: 1.37769 cumulative IPC: 1.40395 (Simulation time: 1 hr 10 min 5 sec) 
Heartbeat CPU 0 instructions: 34000002 cycles: 21061577 heartbeat IPC: 1.31986 cumulative IPC: 1.40023 (Simulation time: 1 hr 12 min 14 sec) 
Heartbeat CPU 0 instructions: 35000001 cycles: 21801763 heartbeat IPC: 1.35101 cumulative IPC: 1.39819 (Simulation time: 1 hr 14 min 30 sec) 
Heartbeat CPU 0 instructions: 36000000 cycles: 22524943 heartbeat IPC: 1.38278 cumulative IPC: 1.39759 (Simulation time: 1 hr 16 min 34 sec) 
Heartbeat CPU 0 instructions: 37000002 cycles: 23255106 heartbeat IPC: 1.36956 cumulative IPC: 1.39653 (Simulation time: 1 hr 19 min 4 sec) 
Heartbeat CPU 0 instructions: 38000002 cycles: 23965091 heartbeat IPC: 1.40848 cumulative IPC: 1.39696 (Simulation time: 1 hr 21 min 27 sec) 
Heartbeat CPU 0 instructions: 39000002 cycles: 24769174 heartbeat IPC: 1.24365 cumulative IPC: 1.39104 (Simulation time: 1 hr 23 min 53 sec) 
Heartbeat CPU 0 instructions: 40000000 cycles: 25312852 heartbeat IPC: 1.83932 cumulative IPC: 1.40244 (Simulation time: 1 hr 26 min 16 sec) 
Heartbeat CPU 0 instructions: 41000003 cycles: 25840521 heartbeat IPC: 1.89513 cumulative IPC: 1.4143 (Simulation time: 1 hr 28 min 26 sec) 
Heartbeat CPU 0 instructions: 42000001 cycles: 26412957 heartbeat IPC: 1.74692 cumulative IPC: 1.42276 (Simulation time: 1 hr 30 min 51 sec) 
Heartbeat CPU 0 instructions: 43000001 cycles: 26979477 heartbeat IPC: 1.76516 cumulative IPC: 1.43118 (Simulation time: 1 hr 33 min 7 sec) 
Heartbeat CPU 0 instructions: 44000000 cycles: 27786496 heartbeat IPC: 1.23913 cumulative IPC: 1.42468 (Simulation time: 1 hr 35 min 22 sec) 
Heartbeat CPU 0 instructions: 45000002 cycles: 28300545 heartbeat IPC: 1.94534 cumulative IPC: 1.43566 (Simulation time: 1 hr 37 min 38 sec) 
Heartbeat CPU 0 instructions: 46000002 cycles: 28880442 heartbeat IPC: 1.72444 cumulative IPC: 1.44237 (Simulation time: 1 hr 39 min 45 sec) 
Heartbeat CPU 0 instructions: 47000000 cycles: 29453790 heartbeat IPC: 1.74414 cumulative IPC: 1.44915 (Simulation time: 1 hr 42 min 2 sec) 
Heartbeat CPU 0 instructions: 48000000 cycles: 30077431 heartbeat IPC: 1.60349 cumulative IPC: 1.45283 (Simulation time: 1 hr 44 min 27 sec) 
Heartbeat CPU 0 instructions: 49000000 cycles: 30562090 heartbeat IPC: 2.06331 cumulative IPC: 1.46393 (Simulation time: 1 hr 46 min 51 sec) 
Heartbeat CPU 0 instructions: 50000002 cycles: 31103177 heartbeat IPC: 1.84814 cumulative IPC: 1.47158 (Simulation time: 1 hr 49 min 10 sec) 
Heartbeat CPU 0 instructions: 51000001 cycles: 31631162 heartbeat IPC: 1.89399 cumulative IPC: 1.47963 (Simulation time: 1 hr 51 min 20 sec) 
Heartbeat CPU 0 instructions: 52000000 cycles: 32104948 heartbeat IPC: 2.11066 cumulative IPC: 1.49024 (Simulation time: 1 hr 53 min 24 sec) 
Heartbeat CPU 0 instructions: 53000002 cycles: 32657863 heartbeat IPC: 1.8086 cumulative IPC: 1.49636 (Simulation time: 1 hr 55 min 43 sec) 
Heartbeat CPU 0 instructions: 54000002 cycles: 33499270 heartbeat IPC: 1.18849 cumulative IPC: 1.48761 (Simulation time: 1 hr 58 min 0 sec) 
Heartbeat CPU 0 instructions: 55000002 cycles: 34093225 heartbeat IPC: 1.68363 cumulative IPC: 1.49146 (Simulation time: 2 hr 0 min 30 sec) 
Heartbeat CPU 0 instructions: 56000000 cycles: 34625363 heartbeat IPC: 1.87921 cumulative IPC: 1.49818 (Simulation time: 2 hr 2 min 29 sec) 
Heartbeat CPU 0 instructions: 57000000 cycles: 35221389 heartbeat IPC: 1.67778 cumulative IPC: 1.5016 (Simulation time: 2 hr 4 min 36 sec) 
Heartbeat CPU 0 instructions: 58000003 cycles: 35703000 heartbeat IPC: 2.07637 cumulative IPC: 1.51031 (Simulation time: 2 hr 6 min 37 sec) 
Heartbeat CPU 0 instructions: 59000001 cycles: 36293274 heartbeat IPC: 1.69413 cumulative IPC: 1.51367 (Simulation time: 2 hr 8 min 43 sec) 
Heartbeat CPU 0 instructions: 60000000 cycles: 36820339 heartbeat IPC: 1.8973 cumulative IPC: 1.51981 (Simulation time: 2 hr 10 min 47 sec) 
Heartbeat CPU 0 instructions: 61000002 cycles: 37396917 heartbeat IPC: 1.73437 cumulative IPC: 1.52351 (Simulation time: 2 hr 12 min 57 sec) 
Heartbeat CPU 0 instructions: 62000003 cycles: 37973687 heartbeat IPC: 1.7338 cumulative IPC: 1.52707 (Simulation time: 2 hr 14 min 57 sec) 
Heartbeat CPU 0 instructions: 63000003 cycles: 38718021 heartbeat IPC: 1.34348 cumulative IPC: 1.52314 (Simulation time: 2 hr 17 min 11 sec) 
Heartbeat CPU 0 instructions: 64000000 cycles: 39245377 heartbeat IPC: 1.89625 cumulative IPC: 1.52871 (Simulation time: 2 hr 19 min 12 sec) 
Heartbeat CPU 0 instructions: 65000001 cycles: 39819454 heartbeat IPC: 1.74193 cumulative IPC: 1.53212 (Simulation time: 2 hr 21 min 10 sec) 
Heartbeat CPU 0 instructions: 66000001 cycles: 40514301 heartbeat IPC: 1.43917 cumulative IPC: 1.53036 (Simulation time: 2 hr 23 min 23 sec) 
Heartbeat CPU 0 instructions: 67000001 cycles: 41179153 heartbeat IPC: 1.50409 cumulative IPC: 1.52989 (Simulation time: 2 hr 25 min 33 sec) 
Heartbeat CPU 0 instructions: 68000000 cycles: 41832987 heartbeat IPC: 1.52944 cumulative IPC: 1.52988 (Simulation time: 2 hr 28 min 4 sec) 
Heartbeat CPU 0 instructions: 69000001 cycles: 42485907 heartbeat IPC: 1.53158 cumulative IPC: 1.52991 (Simulation time: 2 hr 29 min 58 sec) 
Heartbeat CPU 0 instructions: 70000002 cycles: 43150549 heartbeat IPC: 1.50457 cumulative IPC: 1.52948 (Simulation time: 2 hr 32 min 4 sec) 
Heartbeat CPU 0 instructions: 71000001 cycles: 43802452 heartbeat IPC: 1.53397 cumulative IPC: 1.52955 (Simulation time: 2 hr 34 min 27 sec) 
Heartbeat CPU 0 instructions: 72000000 cycles: 44468236 heartbeat IPC: 1.50199 cumulative IPC: 1.5291 (Simulation time: 2 hr 36 min 36 sec) 
Heartbeat CPU 0 instructions: 73000000 cycles: 45131977 heartbeat IPC: 1.50661 cumulative IPC: 1.52874 (Simulation time: 2 hr 38 min 50 sec) 
Heartbeat CPU 0 instructions: 74000000 cycles: 45785359 heartbeat IPC: 1.5305 cumulative IPC: 1.52877 (Simulation time: 2 hr 41 min 9 sec) 
Heartbeat CPU 0 instructions: 75000000 cycles: 46480730 heartbeat IPC: 1.43808 cumulative IPC: 1.52728 (Simulation time: 2 hr 43 min 34 sec) 
Heartbeat CPU 0 instructions: 76000000 cycles: 47160376 heartbeat IPC: 1.47135 cumulative IPC: 1.52641 (Simulation time: 2 hr 45 min 55 sec) 
Heartbeat CPU 0 instructions: 77000003 cycles: 47839562 heartbeat IPC: 1.47236 cumulative IPC: 1.52557 (Simulation time: 2 hr 48 min 14 sec) 
Heartbeat CPU 0 instructions: 78000002 cycles: 48516216 heartbeat IPC: 1.47786 cumulative IPC: 1.52485 (Simulation time: 2 hr 50 min 32 sec) 
Heartbeat CPU 0 instructions: 79000001 cycles: 49182780 heartbeat IPC: 1.50023 cumulative IPC: 1.52448 (Simulation time: 2 hr 52 min 47 sec) 
Heartbeat CPU 0 instructions: 80000000 cycles: 49861037 heartbeat IPC: 1.47437 cumulative IPC: 1.52374 (Simulation time: 2 hr 55 min 5 sec) 
Heartbeat CPU 0 instructions: 81000001 cycles: 50530799 heartbeat IPC: 1.49307 cumulative IPC: 1.5233 (Simulation time: 2 hr 57 min 15 sec) 
Heartbeat CPU 0 instructions: 82000001 cycles: 51191433 heartbeat IPC: 1.5137 cumulative IPC: 1.52317 (Simulation time: 2 hr 59 min 27 sec) 
Heartbeat CPU 0 instructions: 83000003 cycles: 51855331 heartbeat IPC: 1.50626 cumulative IPC: 1.52293 (Simulation time: 3 hr 1 min 41 sec) 
Heartbeat CPU 0 instructions: 84000000 cycles: 52548294 heartbeat IPC: 1.44307 cumulative IPC: 1.5218 (Simulation time: 3 hr 3 min 49 sec) 
Heartbeat CPU 0 instructions: 85000002 cycles: 53136235 heartbeat IPC: 1.70085 cumulative IPC: 1.52393 (Simulation time: 3 hr 6 min 4 sec) 
Heartbeat CPU 0 instructions: 86000001 cycles: 53879467 heartbeat IPC: 1.34547 cumulative IPC: 1.52128 (Simulation time: 3 hr 8 min 37 sec) 
Heartbeat CPU 0 instructions: 87000001 cycles: 54539917 heartbeat IPC: 1.51412 cumulative IPC: 1.52119 (Simulation time: 3 hr 10 min 39 sec) 
Heartbeat CPU 0 instructions: 88000000 cycles: 55040450 heartbeat IPC: 1.99787 cumulative IPC: 1.52585 (Simulation time: 3 hr 12 min 46 sec) 
Heartbeat CPU 0 instructions: 89000000 cycles: 55537035 heartbeat IPC: 2.01375 cumulative IPC: 1.53055 (Simulation time: 3 hr 14 min 54 sec) 
Heartbeat CPU 0 instructions: 90000001 cycles: 56041065 heartbeat IPC: 1.98401 cumulative IPC: 1.53493 (Simulation time: 3 hr 17 min 8 sec) 
Heartbeat CPU 0 instructions: 91000002 cycles: 56655186 heartbeat IPC: 1.62835 cumulative IPC: 1.53602 (Simulation time: 3 hr 19 min 25 sec) 
Heartbeat CPU 0 instructions: 92000000 cycles: 57244149 heartbeat IPC: 1.6979 cumulative IPC: 1.53781 (Simulation time: 3 hr 21 min 35 sec) 
Heartbeat CPU 0 instructions: 93000000 cycles: 57836688 heartbeat IPC: 1.68765 cumulative IPC: 1.53946 (Simulation time: 3 hr 23 min 51 sec) 
Heartbeat CPU 0 instructions: 94000003 cycles: 58404305 heartbeat IPC: 1.76176 cumulative IPC: 1.54177 (Simulation time: 3 hr 25 min 56 sec) 
Heartbeat CPU 0 instructions: 95000003 cycles: 59013342 heartbeat IPC: 1.64194 cumulative IPC: 1.54288 (Simulation time: 3 hr 28 min 16 sec) 
Heartbeat CPU 0 instructions: 96000000 cycles: 59526784 heartbeat IPC: 1.94763 cumulative IPC: 1.54662 (Simulation time: 3 hr 30 min 17 sec) 
Heartbeat CPU 0 instructions: 97000002 cycles: 60065766 heartbeat IPC: 1.85535 cumulative IPC: 1.54958 (Simulation time: 3 hr 32 min 28 sec) 
Heartbeat CPU 0 instructions: 98000000 cycles: 60579405 heartbeat IPC: 1.94689 cumulative IPC: 1.55318 (Simulation time: 3 hr 34 min 30 sec) 
Heartbeat CPU 0 instructions: 99000001 cycles: 61186976 heartbeat IPC: 1.6459 cumulative IPC: 1.55417 (Simulation time: 3 hr 36 min 43 sec) 
Heartbeat CPU 0 instructions: 100000000 cycles: 61716096 heartbeat IPC: 1.88993 cumulative IPC: 1.55724 (Simulation time: 3 hr 38 min 46 sec) 
Heartbeat CPU 0 instructions: 101000001 cycles: 62242454 heartbeat IPC: 1.89985 cumulative IPC: 1.56033 (Simulation time: 3 hr 41 min 5 sec) 
Heartbeat CPU 0 instructions: 102000003 cycles: 62748133 heartbeat IPC: 1.97754 cumulative IPC: 1.56392 (Simulation time: 3 hr 43 min 15 sec) 
Heartbeat CPU 0 instructions: 103000003 cycles: 63341220 heartbeat IPC: 1.68609 cumulative IPC: 1.56514 (Simulation time: 3 hr 45 min 30 sec) 
Heartbeat CPU 0 instructions: 104000000 cycles: 63929412 heartbeat IPC: 1.70012 cumulative IPC: 1.56646 (Simulation time: 3 hr 47 min 39 sec) 
Heartbeat CPU 0 instructions: 105000001 cycles: 64368692 heartbeat IPC: 2.27645 cumulative IPC: 1.57162 (Simulation time: 3 hr 49 min 48 sec) 
Heartbeat CPU 0 instructions: 106000002 cycles: 64834377 heartbeat IPC: 2.14738 cumulative IPC: 1.57602 (Simulation time: 3 hr 51 min 55 sec) 
Heartbeat CPU 0 instructions: 107000001 cycles: 65305812 heartbeat IPC: 2.12118 cumulative IPC: 1.58021 (Simulation time: 3 hr 54 min 7 sec) 
Heartbeat CPU 0 instructions: 108000000 cycles: 65735219 heartbeat IPC: 2.32879 cumulative IPC: 1.58541 (Simulation time: 3 hr 56 min 14 sec) 
Heartbeat CPU 0 instructions: 109000000 cycles: 66238216 heartbeat IPC: 1.98808 cumulative IPC: 1.58866 (Simulation time: 3 hr 58 min 21 sec) 
Heartbeat CPU 0 instructions: 110000000 cycles: 66666258 heartbeat IPC: 2.33622 cumulative IPC: 1.59376 (Simulation time: 4 hr 0 min 33 sec) 
Finished CPU 0 instructions: 100000000 cycles: 62744730 cummulative IPC: 1.59376 (Simulation time: 4 hr 0 min 33 sec) 

ChampSim completed all CPUs

Region of Interest Statistics

CPU 0 cummulative IPC: 1.59376 instructions: 100000000 cycles: 62744730
LLC TOTAL     ACCESS:     865125  HIT:          0  MISS:     865125
LLC LOAD      ACCESS:     110637  HIT:          0  MISS:     110637
LLC RFO       ACCESS:        416  HIT:          0  MISS:        416
LLC PREFETCH  ACCESS:     655764  HIT:          0  MISS:     655764
LLC WRITEBACK ACCESS:      98308  HIT:          0  MISS:      98308
