
*** ChampSim Multicore Out-of-Order Simulator ***

Warmup Instructions: 10000000
Simulation Instructions: 100000000
Configuration: 2
Number of CPUs: 1
LLC sets: 2048
LLC ways: 16
Off-chip DRAM Channels: 1 Width: 64-bit Data Rate: 1600 MT/s

CPU 0 runs /datasets/cs240c-wi22-a00-public/data/Assignment2-gz/milc_744B.trace.gz
CPU 0 L1D next line prefetcher
CPU 0 L2C IP-based stride prefetcher
config 2, num_core 1, llc_sets 2048
Heartbeat CPU 0 instructions: 1000000 cycles: 383656 heartbeat IPC: 2.6065 cumulative IPC: 2.6065 (Simulation time: 0 hr 2 min 24 sec) 
Heartbeat CPU 0 instructions: 2000001 cycles: 767293 heartbeat IPC: 2.60663 cumulative IPC: 2.60657 (Simulation time: 0 hr 4 min 51 sec) 
Heartbeat CPU 0 instructions: 3000001 cycles: 1150974 heartbeat IPC: 2.60633 cumulative IPC: 2.60649 (Simulation time: 0 hr 7 min 13 sec) 
Heartbeat CPU 0 instructions: 4000000 cycles: 1534617 heartbeat IPC: 2.60659 cumulative IPC: 2.60651 (Simulation time: 0 hr 9 min 30 sec) 
Heartbeat CPU 0 instructions: 5000001 cycles: 1918298 heartbeat IPC: 2.60633 cumulative IPC: 2.60648 (Simulation time: 0 hr 11 min 48 sec) 
Heartbeat CPU 0 instructions: 6000002 cycles: 2301951 heartbeat IPC: 2.60652 cumulative IPC: 2.60649 (Simulation time: 0 hr 14 min 8 sec) 
Heartbeat CPU 0 instructions: 7000002 cycles: 2685605 heartbeat IPC: 2.60652 cumulative IPC: 2.60649 (Simulation time: 0 hr 16 min 24 sec) 
Heartbeat CPU 0 instructions: 8000000 cycles: 3069239 heartbeat IPC: 2.60665 cumulative IPC: 2.60651 (Simulation time: 0 hr 18 min 47 sec) 
Heartbeat CPU 0 instructions: 9000003 cycles: 3452946 heartbeat IPC: 2.60616 cumulative IPC: 2.60647 (Simulation time: 0 hr 21 min 21 sec) 
Heartbeat CPU 0 instructions: 10000002 cycles: 3836611 heartbeat IPC: 2.60644 cumulative IPC: 2.60647 (Simulation time: 0 hr 23 min 39 sec) 

Warmup complete CPU 0 instructions: 10000002 cycles: 3836611 (Simulation time: 0 hr 23 min 39 sec) 

Heartbeat CPU 0 instructions: 11000003 cycles: 5253528 heartbeat IPC: 0.705758 cumulative IPC: 0.705758 (Simulation time: 0 hr 26 min 0 sec) 
Heartbeat CPU 0 instructions: 12000000 cycles: 6674214 heartbeat IPC: 0.703883 cumulative IPC: 0.70482 (Simulation time: 0 hr 28 min 25 sec) 
Heartbeat CPU 0 instructions: 13000003 cycles: 8097135 heartbeat IPC: 0.702782 cumulative IPC: 0.704139 (Simulation time: 0 hr 31 min 4 sec) 
Heartbeat CPU 0 instructions: 14000000 cycles: 9517620 heartbeat IPC: 0.703983 cumulative IPC: 0.7041 (Simulation time: 0 hr 33 min 46 sec) 
Heartbeat CPU 0 instructions: 15000000 cycles: 10936913 heartbeat IPC: 0.704576 cumulative IPC: 0.704195 (Simulation time: 0 hr 36 min 0 sec) 
Heartbeat CPU 0 instructions: 16000000 cycles: 12350535 heartbeat IPC: 0.707403 cumulative IPC: 0.704728 (Simulation time: 0 hr 38 min 31 sec) 
Heartbeat CPU 0 instructions: 17000001 cycles: 13774013 heartbeat IPC: 0.702505 cumulative IPC: 0.704409 (Simulation time: 0 hr 40 min 53 sec) 
Heartbeat CPU 0 instructions: 18000000 cycles: 15201104 heartbeat IPC: 0.700725 cumulative IPC: 0.703947 (Simulation time: 0 hr 43 min 19 sec) 
Heartbeat CPU 0 instructions: 19000003 cycles: 16616136 heartbeat IPC: 0.7067 cumulative IPC: 0.704252 (Simulation time: 0 hr 45 min 53 sec) 
Heartbeat CPU 0 instructions: 20000000 cycles: 18038668 heartbeat IPC: 0.70297 cumulative IPC: 0.704123 (Simulation time: 0 hr 48 min 28 sec) 
Heartbeat CPU 0 instructions: 21000003 cycles: 19460071 heartbeat IPC: 0.703532 cumulative IPC: 0.704069 (Simulation time: 0 hr 51 min 5 sec) 
Heartbeat CPU 0 instructions: 22000002 cycles: 20881639 heartbeat IPC: 0.703448 cumulative IPC: 0.704018 (Simulation time: 0 hr 53 min 43 sec) 
Heartbeat CPU 0 instructions: 23000000 cycles: 22304355 heartbeat IPC: 0.70288 cumulative IPC: 0.70393 (Simulation time: 0 hr 56 min 30 sec) 
Heartbeat CPU 0 instructions: 24000000 cycles: 23719163 heartbeat IPC: 0.70681 cumulative IPC: 0.704135 (Simulation time: 0 hr 59 min 23 sec) 
Heartbeat CPU 0 instructions: 25000002 cycles: 25141815 heartbeat IPC: 0.702914 cumulative IPC: 0.704053 (Simulation time: 1 hr 2 min 13 sec) 
Heartbeat CPU 0 instructions: 26000001 cycles: 26560373 heartbeat IPC: 0.70494 cumulative IPC: 0.704109 (Simulation time: 1 hr 5 min 8 sec) 
Heartbeat CPU 0 instructions: 27000001 cycles: 27980701 heartbeat IPC: 0.704063 cumulative IPC: 0.704106 (Simulation time: 1 hr 7 min 44 sec) 
Heartbeat CPU 0 instructions: 28000000 cycles: 29398195 heartbeat IPC: 0.70547 cumulative IPC: 0.704182 (Simulation time: 1 hr 10 min 14 sec) 
Heartbeat CPU 0 instructions: 29000000 cycles: 30811796 heartbeat IPC: 0.707413 cumulative IPC: 0.704351 (Simulation time: 1 hr 12 min 42 sec) 
Heartbeat CPU 0 instructions: 30000000 cycles: 32231941 heartbeat IPC: 0.704153 cumulative IPC: 0.704341 (Simulation time: 1 hr 15 min 1 sec) 
Heartbeat CPU 0 instructions: 31000003 cycles: 33650955 heartbeat IPC: 0.704717 cumulative IPC: 0.704359 (Simulation time: 1 hr 17 min 26 sec) 
Heartbeat CPU 0 instructions: 32000000 cycles: 35070114 heartbeat IPC: 0.704641 cumulative IPC: 0.704372 (Simulation time: 1 hr 19 min 43 sec) 
Heartbeat CPU 0 instructions: 33000001 cycles: 36494499 heartbeat IPC: 0.702058 cumulative IPC: 0.704271 (Simulation time: 1 hr 22 min 10 sec) 
Heartbeat CPU 0 instructions: 34000002 cycles: 37917768 heartbeat IPC: 0.702609 cumulative IPC: 0.704201 (Simulation time: 1 hr 24 min 38 sec) 
Heartbeat CPU 0 instructions: 35000000 cycles: 39341933 heartbeat IPC: 0.702164 cumulative IPC: 0.70412 (Simulation time: 1 hr 27 min 0 sec) 
Heartbeat CPU 0 instructions: 36000000 cycles: 40759676 heartbeat IPC: 0.705346 cumulative IPC: 0.704167 (Simulation time: 1 hr 29 min 27 sec) 
Heartbeat CPU 0 instructions: 37000001 cycles: 42191790 heartbeat IPC: 0.698269 cumulative IPC: 0.703947 (Simulation time: 1 hr 32 min 5 sec) 
Heartbeat CPU 0 instructions: 38000001 cycles: 43609115 heartbeat IPC: 0.705554 cumulative IPC: 0.704004 (Simulation time: 1 hr 34 min 35 sec) 
Heartbeat CPU 0 instructions: 39000001 cycles: 45026180 heartbeat IPC: 0.705684 cumulative IPC: 0.704062 (Simulation time: 1 hr 37 min 8 sec) 
Heartbeat CPU 0 instructions: 40000000 cycles: 46446363 heartbeat IPC: 0.704134 cumulative IPC: 0.704064 (Simulation time: 1 hr 39 min 43 sec) 
Heartbeat CPU 0 instructions: 41000000 cycles: 47865705 heartbeat IPC: 0.704552 cumulative IPC: 0.70408 (Simulation time: 1 hr 42 min 27 sec) 
Heartbeat CPU 0 instructions: 42000002 cycles: 49279926 heartbeat IPC: 0.707105 cumulative IPC: 0.704174 (Simulation time: 1 hr 45 min 18 sec) 
Heartbeat CPU 0 instructions: 43000003 cycles: 50700064 heartbeat IPC: 0.704158 cumulative IPC: 0.704174 (Simulation time: 1 hr 48 min 1 sec) 
Heartbeat CPU 0 instructions: 44000000 cycles: 52125042 heartbeat IPC: 0.701763 cumulative IPC: 0.704102 (Simulation time: 1 hr 50 min 39 sec) 
Heartbeat CPU 0 instructions: 45000000 cycles: 53543373 heartbeat IPC: 0.705054 cumulative IPC: 0.70413 (Simulation time: 1 hr 53 min 18 sec) 
Heartbeat CPU 0 instructions: 46000003 cycles: 54964072 heartbeat IPC: 0.703881 cumulative IPC: 0.704123 (Simulation time: 1 hr 55 min 59 sec) 
Heartbeat CPU 0 instructions: 47000002 cycles: 56384478 heartbeat IPC: 0.704023 cumulative IPC: 0.70412 (Simulation time: 1 hr 58 min 34 sec) 
Heartbeat CPU 0 instructions: 48000000 cycles: 57802042 heartbeat IPC: 0.705434 cumulative IPC: 0.704154 (Simulation time: 2 hr 1 min 4 sec) 
Heartbeat CPU 0 instructions: 49000001 cycles: 59222713 heartbeat IPC: 0.703893 cumulative IPC: 0.704148 (Simulation time: 2 hr 3 min 34 sec) 
Heartbeat CPU 0 instructions: 50000001 cycles: 60648130 heartbeat IPC: 0.701549 cumulative IPC: 0.704083 (Simulation time: 2 hr 6 min 7 sec) 
Heartbeat CPU 0 instructions: 51000001 cycles: 62069167 heartbeat IPC: 0.703711 cumulative IPC: 0.704073 (Simulation time: 2 hr 8 min 37 sec) 
Heartbeat CPU 0 instructions: 52000000 cycles: 63489032 heartbeat IPC: 0.704292 cumulative IPC: 0.704079 (Simulation time: 2 hr 10 min 58 sec) 
Heartbeat CPU 0 instructions: 53000000 cycles: 64908816 heartbeat IPC: 0.704332 cumulative IPC: 0.704085 (Simulation time: 2 hr 13 min 20 sec) 
Heartbeat CPU 0 instructions: 54000001 cycles: 66327662 heartbeat IPC: 0.704799 cumulative IPC: 0.704101 (Simulation time: 2 hr 15 min 40 sec) 
Heartbeat CPU 0 instructions: 55000003 cycles: 67751514 heartbeat IPC: 0.702322 cumulative IPC: 0.704061 (Simulation time: 2 hr 18 min 5 sec) 
Heartbeat CPU 0 instructions: 56000000 cycles: 69176696 heartbeat IPC: 0.701663 cumulative IPC: 0.704009 (Simulation time: 2 hr 20 min 37 sec) 
Heartbeat CPU 0 instructions: 57000000 cycles: 70596116 heartbeat IPC: 0.704513 cumulative IPC: 0.70402 (Simulation time: 2 hr 23 min 4 sec) 
Heartbeat CPU 0 instructions: 58000000 cycles: 72014383 heartbeat IPC: 0.705086 cumulative IPC: 0.704042 (Simulation time: 2 hr 25 min 36 sec) 
Heartbeat CPU 0 instructions: 59000002 cycles: 73435652 heartbeat IPC: 0.703598 cumulative IPC: 0.704033 (Simulation time: 2 hr 28 min 10 sec) 
Heartbeat CPU 0 instructions: 60000000 cycles: 74852922 heartbeat IPC: 0.70558 cumulative IPC: 0.704064 (Simulation time: 2 hr 30 min 35 sec) 
Heartbeat CPU 0 instructions: 61000001 cycles: 76273483 heartbeat IPC: 0.703948 cumulative IPC: 0.704061 (Simulation time: 2 hr 33 min 11 sec) 
Heartbeat CPU 0 instructions: 62000003 cycles: 77700941 heartbeat IPC: 0.700547 cumulative IPC: 0.703993 (Simulation time: 2 hr 35 min 50 sec) 
Heartbeat CPU 0 instructions: 63000001 cycles: 79120988 heartbeat IPC: 0.704201 cumulative IPC: 0.703997 (Simulation time: 2 hr 38 min 31 sec) 
Heartbeat CPU 0 instructions: 64000000 cycles: 80540344 heartbeat IPC: 0.704544 cumulative IPC: 0.704007 (Simulation time: 2 hr 40 min 57 sec) 
Heartbeat CPU 0 instructions: 65000002 cycles: 81960445 heartbeat IPC: 0.704177 cumulative IPC: 0.70401 (Simulation time: 2 hr 43 min 37 sec) 
Heartbeat CPU 0 instructions: 66000001 cycles: 83378245 heartbeat IPC: 0.705317 cumulative IPC: 0.704034 (Simulation time: 2 hr 46 min 18 sec) 
Heartbeat CPU 0 instructions: 67000003 cycles: 84799752 heartbeat IPC: 0.70348 cumulative IPC: 0.704024 (Simulation time: 2 hr 49 min 0 sec) 
Heartbeat CPU 0 instructions: 68000000 cycles: 86225932 heartbeat IPC: 0.701172 cumulative IPC: 0.703975 (Simulation time: 2 hr 51 min 34 sec) 
Heartbeat CPU 0 instructions: 69000003 cycles: 87651001 heartbeat IPC: 0.701723 cumulative IPC: 0.703936 (Simulation time: 2 hr 54 min 23 sec) 
Heartbeat CPU 0 instructions: 70000002 cycles: 89069331 heartbeat IPC: 0.705054 cumulative IPC: 0.703955 (Simulation time: 2 hr 57 min 6 sec) 
Heartbeat CPU 0 instructions: 71000002 cycles: 90483192 heartbeat IPC: 0.707283 cumulative IPC: 0.704009 (Simulation time: 2 hr 59 min 51 sec) 
Heartbeat CPU 0 instructions: 72000000 cycles: 91905630 heartbeat IPC: 0.703017 cumulative IPC: 0.703993 (Simulation time: 3 hr 2 min 34 sec) 
Heartbeat CPU 0 instructions: 73000002 cycles: 93328226 heartbeat IPC: 0.702942 cumulative IPC: 0.703977 (Simulation time: 3 hr 5 min 8 sec) 
Heartbeat CPU 0 instructions: 74000002 cycles: 94747935 heartbeat IPC: 0.70437 cumulative IPC: 0.703983 (Simulation time: 3 hr 7 min 49 sec) 
Heartbeat CPU 0 instructions: 75000001 cycles: 96164802 heartbeat IPC: 0.705782 cumulative IPC: 0.70401 (Simulation time: 3 hr 10 min 27 sec) 
Heartbeat CPU 0 instructions: 76000000 cycles: 97587669 heartbeat IPC: 0.702806 cumulative IPC: 0.703992 (Simulation time: 3 hr 13 min 5 sec) 
Heartbeat CPU 0 instructions: 77000002 cycles: 99006638 heartbeat IPC: 0.704738 cumulative IPC: 0.704003 (Simulation time: 3 hr 15 min 34 sec) 
Heartbeat CPU 0 instructions: 78000000 cycles: 100429451 heartbeat IPC: 0.702832 cumulative IPC: 0.703986 (Simulation time: 3 hr 18 min 16 sec) 
Heartbeat CPU 0 instructions: 79000000 cycles: 101851464 heartbeat IPC: 0.703228 cumulative IPC: 0.703975 (Simulation time: 3 hr 20 min 42 sec) 
Heartbeat CPU 0 instructions: 80000000 cycles: 103275528 heartbeat IPC: 0.702216 cumulative IPC: 0.70395 (Simulation time: 3 hr 23 min 23 sec) 
Heartbeat CPU 0 instructions: 81000003 cycles: 104694058 heartbeat IPC: 0.704957 cumulative IPC: 0.703964 (Simulation time: 3 hr 26 min 4 sec) 
Heartbeat CPU 0 instructions: 82000003 cycles: 106112911 heartbeat IPC: 0.704795 cumulative IPC: 0.703975 (Simulation time: 3 hr 28 min 38 sec) 
Heartbeat CPU 0 instructions: 83000002 cycles: 107534411 heartbeat IPC: 0.703482 cumulative IPC: 0.703969 (Simulation time: 3 hr 31 min 11 sec) 
Heartbeat CPU 0 instructions: 84000000 cycles: 108954442 heartbeat IPC: 0.704209 cumulative IPC: 0.703972 (Simulation time: 3 hr 33 min 49 sec) 
Heartbeat CPU 0 instructions: 85000000 cycles: 110374386 heartbeat IPC: 0.704253 cumulative IPC: 0.703976 (Simulation time: 3 hr 36 min 27 sec) 
Heartbeat CPU 0 instructions: 86000001 cycles: 111790868 heartbeat IPC: 0.705975 cumulative IPC: 0.704002 (Simulation time: 3 hr 39 min 9 sec) 
Heartbeat CPU 0 instructions: 87000001 cycles: 113215741 heartbeat IPC: 0.701817 cumulative IPC: 0.703973 (Simulation time: 3 hr 41 min 52 sec) 
Heartbeat CPU 0 instructions: 88000000 cycles: 114638709 heartbeat IPC: 0.702756 cumulative IPC: 0.703958 (Simulation time: 3 hr 44 min 43 sec) 
Heartbeat CPU 0 instructions: 89000001 cycles: 116056352 heartbeat IPC: 0.705397 cumulative IPC: 0.703976 (Simulation time: 3 hr 47 min 11 sec) 
Heartbeat CPU 0 instructions: 90000000 cycles: 117481404 heartbeat IPC: 0.701728 cumulative IPC: 0.703948 (Simulation time: 3 hr 49 min 55 sec) 
Heartbeat CPU 0 instructions: 91000001 cycles: 118902926 heartbeat IPC: 0.703472 cumulative IPC: 0.703942 (Simulation time: 3 hr 52 min 30 sec) 
Heartbeat CPU 0 instructions: 92000000 cycles: 123419452 heartbeat IPC: 0.221409 cumulative IPC: 0.685717 (Simulation time: 3 hr 57 min 58 sec) 
Heartbeat CPU 0 instructions: 93000000 cycles: 128051452 heartbeat IPC: 0.215889 cumulative IPC: 0.668197 (Simulation time: 4 hr 3 min 9 sec) 
Heartbeat CPU 0 instructions: 94000002 cycles: 131151084 heartbeat IPC: 0.32262 cumulative IPC: 0.659784 (Simulation time: 4 hr 7 min 6 sec) 
Heartbeat CPU 0 instructions: 95000000 cycles: 132385235 heartbeat IPC: 0.810272 cumulative IPC: 0.661228 (Simulation time: 4 hr 9 min 41 sec) 
Heartbeat CPU 0 instructions: 96000000 cycles: 133646801 heartbeat IPC: 0.792666 cumulative IPC: 0.662506 (Simulation time: 4 hr 12 min 0 sec) 
Heartbeat CPU 0 instructions: 97000002 cycles: 134903045 heartbeat IPC: 0.796025 cumulative IPC: 0.663786 (Simulation time: 4 hr 14 min 2 sec) 
Heartbeat CPU 0 instructions: 98000003 cycles: 136159534 heartbeat IPC: 0.795869 cumulative IPC: 0.66504 (Simulation time: 4 hr 16 min 9 sec) 
Heartbeat CPU 0 instructions: 99000000 cycles: 137424943 heartbeat IPC: 0.790256 cumulative IPC: 0.666226 (Simulation time: 4 hr 18 min 12 sec) 
Heartbeat CPU 0 instructions: 100000000 cycles: 138680067 heartbeat IPC: 0.796734 cumulative IPC: 0.667441 (Simulation time: 4 hr 20 min 11 sec) 
Heartbeat CPU 0 instructions: 101000001 cycles: 139938485 heartbeat IPC: 0.794649 cumulative IPC: 0.668617 (Simulation time: 4 hr 22 min 2 sec) 
Heartbeat CPU 0 instructions: 102000000 cycles: 141200793 heartbeat IPC: 0.792199 cumulative IPC: 0.669752 (Simulation time: 4 hr 23 min 47 sec) 
Heartbeat CPU 0 instructions: 103000002 cycles: 142457565 heartbeat IPC: 0.795691 cumulative IPC: 0.670894 (Simulation time: 4 hr 25 min 33 sec) 
Heartbeat CPU 0 instructions: 104000000 cycles: 143716481 heartbeat IPC: 0.794333 cumulative IPC: 0.672005 (Simulation time: 4 hr 27 min 15 sec) 
Heartbeat CPU 0 instructions: 105000003 cycles: 144975535 heartbeat IPC: 0.794249 cumulative IPC: 0.673096 (Simulation time: 4 hr 28 min 53 sec) 
Heartbeat CPU 0 instructions: 106000002 cycles: 146232016 heartbeat IPC: 0.795873 cumulative IPC: 0.674179 (Simulation time: 4 hr 30 min 27 sec) 
Heartbeat CPU 0 instructions: 107000002 cycles: 147491486 heartbeat IPC: 0.793985 cumulative IPC: 0.675229 (Simulation time: 4 hr 31 min 53 sec) 
Heartbeat CPU 0 instructions: 108000000 cycles: 148754315 heartbeat IPC: 0.791871 cumulative IPC: 0.676246 (Simulation time: 4 hr 33 min 19 sec) 
Heartbeat CPU 0 instructions: 109000001 cycles: 150010103 heartbeat IPC: 0.796314 cumulative IPC: 0.677277 (Simulation time: 4 hr 34 min 42 sec) 
Heartbeat CPU 0 instructions: 110000001 cycles: 151270886 heartbeat IPC: 0.793158 cumulative IPC: 0.678268 (Simulation time: 4 hr 36 min 5 sec) 
Finished CPU 0 instructions: 100000003 cycles: 147434276 cummulative IPC: 0.678268 (Simulation time: 4 hr 36 min 5 sec) 

ChampSim completed all CPUs

Region of Interest Statistics

CPU 0 cummulative IPC: 0.678268 instructions: 100000003 cycles: 147434276
LLC TOTAL     ACCESS:    2872436  HIT:          0  MISS:    2872436
LLC LOAD      ACCESS:     739141  HIT:          0  MISS:     739141
LLC RFO       ACCESS:     423298  HIT:          0  MISS:     423298
LLC PREFETCH  ACCESS:    1009279  HIT:          0  MISS:    1009279
LLC WRITEBACK ACCESS:     700718  HIT:          0  MISS:     700718
