
*** ChampSim Multicore Out-of-Order Simulator ***

Warmup Instructions: 10000000
Simulation Instructions: 100000000
Configuration: 2
Number of CPUs: 1
LLC sets: 2048
LLC ways: 16
Off-chip DRAM Channels: 1 Width: 64-bit Data Rate: 1600 MT/s

CPU 0 runs /datasets/cs240c-wi22-a00-public/data/Assignment2-gz/mcf_46B.trace.gz
CPU 0 L1D next line prefetcher
CPU 0 L2C IP-based stride prefetcher
config 2, num_core 1, llc_sets 2048
Heartbeat CPU 0 instructions: 1000002 cycles: 494831 heartbeat IPC: 2.0209 cumulative IPC: 2.0209 (Simulation time: 0 hr 2 min 58 sec) 
Heartbeat CPU 0 instructions: 2000002 cycles: 994061 heartbeat IPC: 2.00308 cumulative IPC: 2.01195 (Simulation time: 0 hr 5 min 49 sec) 
Heartbeat CPU 0 instructions: 3000003 cycles: 1526393 heartbeat IPC: 1.87853 cumulative IPC: 1.96542 (Simulation time: 0 hr 8 min 46 sec) 
Heartbeat CPU 0 instructions: 4000000 cycles: 2051937 heartbeat IPC: 1.90278 cumulative IPC: 1.94938 (Simulation time: 0 hr 11 min 45 sec) 
Heartbeat CPU 0 instructions: 5000000 cycles: 2549285 heartbeat IPC: 2.01066 cumulative IPC: 1.96133 (Simulation time: 0 hr 14 min 40 sec) 
Heartbeat CPU 0 instructions: 6000003 cycles: 3056978 heartbeat IPC: 1.9697 cumulative IPC: 1.96272 (Simulation time: 0 hr 17 min 35 sec) 
Heartbeat CPU 0 instructions: 7000001 cycles: 3607200 heartbeat IPC: 1.81744 cumulative IPC: 1.94056 (Simulation time: 0 hr 20 min 47 sec) 
Heartbeat CPU 0 instructions: 8000000 cycles: 4102078 heartbeat IPC: 2.0207 cumulative IPC: 1.95023 (Simulation time: 0 hr 23 min 36 sec) 
Heartbeat CPU 0 instructions: 9000001 cycles: 4589325 heartbeat IPC: 2.05235 cumulative IPC: 1.96107 (Simulation time: 0 hr 26 min 22 sec) 
Heartbeat CPU 0 instructions: 10000001 cycles: 5131887 heartbeat IPC: 1.84311 cumulative IPC: 1.9486 (Simulation time: 0 hr 29 min 13 sec) 

Warmup complete CPU 0 instructions: 10000001 cycles: 5131887 (Simulation time: 0 hr 29 min 13 sec) 

Heartbeat CPU 0 instructions: 11000002 cycles: 19573468 heartbeat IPC: 0.0692446 cumulative IPC: 0.0692446 (Simulation time: 0 hr 34 min 45 sec) 
Heartbeat CPU 0 instructions: 12000000 cycles: 27103796 heartbeat IPC: 0.132796 cumulative IPC: 0.0910253 (Simulation time: 0 hr 39 min 16 sec) 
Heartbeat CPU 0 instructions: 13000000 cycles: 37364715 heartbeat IPC: 0.0974572 cumulative IPC: 0.0930728 (Simulation time: 0 hr 44 min 8 sec) 
Heartbeat CPU 0 instructions: 14000003 cycles: 54004584 heartbeat IPC: 0.0600968 cumulative IPC: 0.0818453 (Simulation time: 0 hr 50 min 1 sec) 
Heartbeat CPU 0 instructions: 15000000 cycles: 61499858 heartbeat IPC: 0.133417 cumulative IPC: 0.0887028 (Simulation time: 0 hr 54 min 39 sec) 
Heartbeat CPU 0 instructions: 16000000 cycles: 68717384 heartbeat IPC: 0.138552 cumulative IPC: 0.0943611 (Simulation time: 0 hr 59 min 23 sec) 
Heartbeat CPU 0 instructions: 17000002 cycles: 85822994 heartbeat IPC: 0.0584605 cumulative IPC: 0.0867506 (Simulation time: 1 hr 5 min 20 sec) 
Heartbeat CPU 0 instructions: 18000001 cycles: 93885945 heartbeat IPC: 0.124024 cumulative IPC: 0.0901367 (Simulation time: 1 hr 9 min 51 sec) 
Heartbeat CPU 0 instructions: 19000002 cycles: 101672173 heartbeat IPC: 0.128432 cumulative IPC: 0.0932253 (Simulation time: 1 hr 14 min 25 sec) 
Heartbeat CPU 0 instructions: 20000000 cycles: 117891881 heartbeat IPC: 0.0616533 cumulative IPC: 0.0886839 (Simulation time: 1 hr 20 min 17 sec) 
Heartbeat CPU 0 instructions: 21000002 cycles: 135566251 heartbeat IPC: 0.0565792 cumulative IPC: 0.0843336 (Simulation time: 1 hr 26 min 22 sec) 
Heartbeat CPU 0 instructions: 22000002 cycles: 142664292 heartbeat IPC: 0.140884 cumulative IPC: 0.0872522 (Simulation time: 1 hr 30 min 55 sec) 
Heartbeat CPU 0 instructions: 23000001 cycles: 149831642 heartbeat IPC: 0.139521 cumulative IPC: 0.0898412 (Simulation time: 1 hr 35 min 13 sec) 
Heartbeat CPU 0 instructions: 24000000 cycles: 164946584 heartbeat IPC: 0.0661596 cumulative IPC: 0.0876014 (Simulation time: 1 hr 40 min 40 sec) 
Heartbeat CPU 0 instructions: 25000002 cycles: 175033447 heartbeat IPC: 0.099139 cumulative IPC: 0.0882864 (Simulation time: 1 hr 45 min 38 sec) 
Heartbeat CPU 0 instructions: 26000001 cycles: 182083978 heartbeat IPC: 0.141833 cumulative IPC: 0.09042 (Simulation time: 1 hr 50 min 3 sec) 
Heartbeat CPU 0 instructions: 27000000 cycles: 194406421 heartbeat IPC: 0.0811527 cumulative IPC: 0.0898166 (Simulation time: 1 hr 55 min 14 sec) 
Heartbeat CPU 0 instructions: 28000000 cycles: 207778329 heartbeat IPC: 0.0747836 cumulative IPC: 0.0888247 (Simulation time: 2 hr 0 min 26 sec) 
Heartbeat CPU 0 instructions: 29000001 cycles: 215515554 heartbeat IPC: 0.129245 cumulative IPC: 0.0903112 (Simulation time: 2 hr 4 min 50 sec) 
Heartbeat CPU 0 instructions: 30000000 cycles: 225738471 heartbeat IPC: 0.0978193 cumulative IPC: 0.0906591 (Simulation time: 2 hr 9 min 23 sec) 
Heartbeat CPU 0 instructions: 31000002 cycles: 241343952 heartbeat IPC: 0.0640802 cumulative IPC: 0.0889032 (Simulation time: 2 hr 14 min 42 sec) 
Heartbeat CPU 0 instructions: 32000000 cycles: 249074021 heartbeat IPC: 0.129365 cumulative IPC: 0.0901853 (Simulation time: 2 hr 18 min 56 sec) 
Heartbeat CPU 0 instructions: 33000000 cycles: 259215451 heartbeat IPC: 0.0986054 cumulative IPC: 0.0905214 (Simulation time: 2 hr 23 min 27 sec) 
Heartbeat CPU 0 instructions: 34000000 cycles: 276068073 heartbeat IPC: 0.0593379 cumulative IPC: 0.0885817 (Simulation time: 2 hr 29 min 10 sec) 
Heartbeat CPU 0 instructions: 35000000 cycles: 285287535 heartbeat IPC: 0.108466 cumulative IPC: 0.0892361 (Simulation time: 2 hr 33 min 35 sec) 
Heartbeat CPU 0 instructions: 36000000 cycles: 295477714 heartbeat IPC: 0.0981337 cumulative IPC: 0.0895484 (Simulation time: 2 hr 38 min 41 sec) 
Heartbeat CPU 0 instructions: 37000002 cycles: 308234443 heartbeat IPC: 0.0783902 cumulative IPC: 0.0890788 (Simulation time: 2 hr 43 min 48 sec) 
Heartbeat CPU 0 instructions: 38000000 cycles: 321195399 heartbeat IPC: 0.0771547 cumulative IPC: 0.0885898 (Simulation time: 2 hr 49 min 1 sec) 
Heartbeat CPU 0 instructions: 39000000 cycles: 328639412 heartbeat IPC: 0.134336 cumulative IPC: 0.0896424 (Simulation time: 2 hr 53 min 21 sec) 
Heartbeat CPU 0 instructions: 40000000 cycles: 337672503 heartbeat IPC: 0.110704 cumulative IPC: 0.0902145 (Simulation time: 2 hr 58 min 5 sec) 
Heartbeat CPU 0 instructions: 41000000 cycles: 354225930 heartbeat IPC: 0.0604105 cumulative IPC: 0.0888013 (Simulation time: 3 hr 4 min 14 sec) 
Heartbeat CPU 0 instructions: 42000001 cycles: 362435011 heartbeat IPC: 0.121816 cumulative IPC: 0.0895598 (Simulation time: 3 hr 8 min 54 sec) 
Heartbeat CPU 0 instructions: 43000000 cycles: 369990085 heartbeat IPC: 0.132361 cumulative IPC: 0.0904461 (Simulation time: 3 hr 13 min 9 sec) 
Heartbeat CPU 0 instructions: 44000000 cycles: 385579198 heartbeat IPC: 0.0641473 cumulative IPC: 0.0893685 (Simulation time: 3 hr 19 min 3 sec) 
Heartbeat CPU 0 instructions: 45000001 cycles: 395625294 heartbeat IPC: 0.0995413 cumulative IPC: 0.0896302 (Simulation time: 3 hr 24 min 3 sec) 
Heartbeat CPU 0 instructions: 46000001 cycles: 403322683 heartbeat IPC: 0.129914 cumulative IPC: 0.0904089 (Simulation time: 3 hr 28 min 15 sec) 
Heartbeat CPU 0 instructions: 47000002 cycles: 415540508 heartbeat IPC: 0.0818477 cumulative IPC: 0.0901541 (Simulation time: 3 hr 33 min 52 sec) 
Heartbeat CPU 0 instructions: 48000000 cycles: 429247808 heartbeat IPC: 0.0729537 cumulative IPC: 0.0895981 (Simulation time: 3 hr 39 min 35 sec) 
Heartbeat CPU 0 instructions: 49000000 cycles: 437385184 heartbeat IPC: 0.12289 cumulative IPC: 0.0902249 (Simulation time: 3 hr 44 min 18 sec) 
Heartbeat CPU 0 instructions: 50000001 cycles: 446921871 heartbeat IPC: 0.104858 cumulative IPC: 0.0905408 (Simulation time: 3 hr 49 min 31 sec) 
Heartbeat CPU 0 instructions: 51000001 cycles: 463366730 heartbeat IPC: 0.0608093 cumulative IPC: 0.0894738 (Simulation time: 3 hr 55 min 42 sec) 
Heartbeat CPU 0 instructions: 52000000 cycles: 471318686 heartbeat IPC: 0.125755 cumulative IPC: 0.0900926 (Simulation time: 4 hr 0 min 36 sec) 
Heartbeat CPU 0 instructions: 53000000 cycles: 479012789 heartbeat IPC: 0.12997 cumulative IPC: 0.0907401 (Simulation time: 4 hr 5 min 11 sec) 
Heartbeat CPU 0 instructions: 54000002 cycles: 496454174 heartbeat IPC: 0.057335 cumulative IPC: 0.0895543 (Simulation time: 4 hr 11 min 9 sec) 
Heartbeat CPU 0 instructions: 55000002 cycles: 504853129 heartbeat IPC: 0.119062 cumulative IPC: 0.0900502 (Simulation time: 4 hr 15 min 40 sec) 
Heartbeat CPU 0 instructions: 56000000 cycles: 512805542 heartbeat IPC: 0.125748 cumulative IPC: 0.0906094 (Simulation time: 4 hr 19 min 55 sec) 
Heartbeat CPU 0 instructions: 57000000 cycles: 528411799 heartbeat IPC: 0.0640769 cumulative IPC: 0.0898181 (Simulation time: 4 hr 24 min 50 sec) 
Heartbeat CPU 0 instructions: 58000000 cycles: 538496361 heartbeat IPC: 0.0991615 cumulative IPC: 0.0899947 (Simulation time: 4 hr 28 min 43 sec) 
Heartbeat CPU 0 instructions: 59000002 cycles: 546026582 heartbeat IPC: 0.132798 cumulative IPC: 0.0905906 (Simulation time: 4 hr 32 min 0 sec) 
Heartbeat CPU 0 instructions: 60000000 cycles: 560281061 heartbeat IPC: 0.0701533 cumulative IPC: 0.0900659 (Simulation time: 4 hr 35 min 54 sec) 
Heartbeat CPU 0 instructions: 61000002 cycles: 572007491 heartbeat IPC: 0.0852776 cumulative IPC: 0.0899668 (Simulation time: 4 hr 39 min 6 sec) 
Heartbeat CPU 0 instructions: 62000001 cycles: 579458969 heartbeat IPC: 0.134201 cumulative IPC: 0.0905407 (Simulation time: 4 hr 41 min 49 sec) 
Heartbeat CPU 0 instructions: 63000001 cycles: 592384254 heartbeat IPC: 0.0773677 cumulative IPC: 0.0902508 (Simulation time: 4 hr 44 min 47 sec) 
Heartbeat CPU 0 instructions: 64000000 cycles: 605963366 heartbeat IPC: 0.0736424 cumulative IPC: 0.0898755 (Simulation time: 4 hr 47 min 31 sec) 
Heartbeat CPU 0 instructions: 65000002 cycles: 615037802 heartbeat IPC: 0.1102 cumulative IPC: 0.0901778 (Simulation time: 4 hr 49 min 31 sec) 
Heartbeat CPU 0 instructions: 66000000 cycles: 624902241 heartbeat IPC: 0.101374 cumulative IPC: 0.090356 (Simulation time: 4 hr 51 min 33 sec) 
Heartbeat CPU 0 instructions: 67000002 cycles: 642587804 heartbeat IPC: 0.0565434 cumulative IPC: 0.0894179 (Simulation time: 4 hr 53 min 45 sec) 
Heartbeat CPU 0 instructions: 68000000 cycles: 649955569 heartbeat IPC: 0.135726 cumulative IPC: 0.0899471 (Simulation time: 4 hr 55 min 3 sec) 
Heartbeat CPU 0 instructions: 69000000 cycles: 657270856 heartbeat IPC: 0.1367 cumulative IPC: 0.0904715 (Simulation time: 4 hr 56 min 9 sec) 
Heartbeat CPU 0 instructions: 70000001 cycles: 673491901 heartbeat IPC: 0.0616484 cumulative IPC: 0.089772 (Simulation time: 4 hr 57 min 27 sec) 
Heartbeat CPU 0 instructions: 71000002 cycles: 685129705 heartbeat IPC: 0.0859269 cumulative IPC: 0.0897062 (Simulation time: 4 hr 58 min 25 sec) 
Heartbeat CPU 0 instructions: 72000000 cycles: 693599166 heartbeat IPC: 0.118071 cumulative IPC: 0.0900551 (Simulation time: 4 hr 59 min 7 sec) 
Heartbeat CPU 0 instructions: 73000002 cycles: 705515675 heartbeat IPC: 0.0839174 cumulative IPC: 0.0899507 (Simulation time: 4 hr 59 min 49 sec) 
Heartbeat CPU 0 instructions: 74000001 cycles: 719618650 heartbeat IPC: 0.070907 cumulative IPC: 0.0895748 (Simulation time: 5 hr 0 min 29 sec) 
Heartbeat CPU 0 instructions: 75000002 cycles: 727713174 heartbeat IPC: 0.12354 cumulative IPC: 0.0899553 (Simulation time: 5 hr 0 min 59 sec) 
Heartbeat CPU 0 instructions: 76000000 cycles: 737010097 heartbeat IPC: 0.107562 cumulative IPC: 0.0901789 (Simulation time: 5 hr 1 min 28 sec) 
Heartbeat CPU 0 instructions: 77000001 cycles: 755274720 heartbeat IPC: 0.0547507 cumulative IPC: 0.0893163 (Simulation time: 5 hr 2 min 2 sec) 
Heartbeat CPU 0 instructions: 78000002 cycles: 763378669 heartbeat IPC: 0.123397 cumulative IPC: 0.0896806 (Simulation time: 5 hr 2 min 23 sec) 
Heartbeat CPU 0 instructions: 79000001 cycles: 771226918 heartbeat IPC: 0.127417 cumulative IPC: 0.0900672 (Simulation time: 5 hr 2 min 42 sec) 
Heartbeat CPU 0 instructions: 80000000 cycles: 786741493 heartbeat IPC: 0.0644555 cumulative IPC: 0.0895588 (Simulation time: 5 hr 3 min 5 sec) 
Heartbeat CPU 0 instructions: 81000000 cycles: 796722381 heartbeat IPC: 0.100191 cumulative IPC: 0.0896928 (Simulation time: 5 hr 3 min 23 sec) 
Heartbeat CPU 0 instructions: 82000000 cycles: 804925593 heartbeat IPC: 0.121903 cumulative IPC: 0.0900232 (Simulation time: 5 hr 3 min 40 sec) 
Heartbeat CPU 0 instructions: 83000001 cycles: 817656387 heartbeat IPC: 0.0785498 cumulative IPC: 0.0898434 (Simulation time: 5 hr 3 min 59 sec) 
Heartbeat CPU 0 instructions: 84000000 cycles: 831148121 heartbeat IPC: 0.0741194 cumulative IPC: 0.0895866 (Simulation time: 5 hr 4 min 19 sec) 
Heartbeat CPU 0 instructions: 85000001 cycles: 838900918 heartbeat IPC: 0.128986 cumulative IPC: 0.089953 (Simulation time: 5 hr 4 min 34 sec) 
Heartbeat CPU 0 instructions: 86000000 cycles: 850774432 heartbeat IPC: 0.084221 cumulative IPC: 0.0898725 (Simulation time: 5 hr 4 min 52 sec) 
Heartbeat CPU 0 instructions: 87000000 cycles: 867457194 heartbeat IPC: 0.0599421 cumulative IPC: 0.0892935 (Simulation time: 5 hr 5 min 12 sec) 
Heartbeat CPU 0 instructions: 88000000 cycles: 876556658 heartbeat IPC: 0.109897 cumulative IPC: 0.0895086 (Simulation time: 5 hr 5 min 28 sec) 
Heartbeat CPU 0 instructions: 89000000 cycles: 884196926 heartbeat IPC: 0.130885 cumulative IPC: 0.0898682 (Simulation time: 5 hr 5 min 43 sec) 
Heartbeat CPU 0 instructions: 90000003 cycles: 898446366 heartbeat IPC: 0.0701784 cumulative IPC: 0.0895541 (Simulation time: 5 hr 6 min 2 sec) 
Heartbeat CPU 0 instructions: 91000000 cycles: 909819147 heartbeat IPC: 0.087929 cumulative IPC: 0.0895337 (Simulation time: 5 hr 6 min 20 sec) 
Heartbeat CPU 0 instructions: 92000000 cycles: 917415029 heartbeat IPC: 0.13165 cumulative IPC: 0.0898844 (Simulation time: 5 hr 6 min 35 sec) 
Heartbeat CPU 0 instructions: 93000002 cycles: 928989172 heartbeat IPC: 0.0863997 cumulative IPC: 0.0898407 (Simulation time: 5 hr 6 min 52 sec) 
Heartbeat CPU 0 instructions: 94000002 cycles: 942808534 heartbeat IPC: 0.0723622 cumulative IPC: 0.0895831 (Simulation time: 5 hr 7 min 10 sec) 
Heartbeat CPU 0 instructions: 95000000 cycles: 951919134 heartbeat IPC: 0.109762 cumulative IPC: 0.0897773 (Simulation time: 5 hr 7 min 25 sec) 
Heartbeat CPU 0 instructions: 96000000 cycles: 960736332 heartbeat IPC: 0.113415 cumulative IPC: 0.0899954 (Simulation time: 5 hr 7 min 39 sec) 
Heartbeat CPU 0 instructions: 97000000 cycles: 977743199 heartbeat IPC: 0.0587998 cumulative IPC: 0.0894499 (Simulation time: 5 hr 7 min 57 sec) 
Heartbeat CPU 0 instructions: 98000002 cycles: 985806136 heartbeat IPC: 0.124025 cumulative IPC: 0.0897342 (Simulation time: 5 hr 8 min 11 sec) 
Heartbeat CPU 0 instructions: 99000002 cycles: 994332308 heartbeat IPC: 0.117286 cumulative IPC: 0.0899717 (Simulation time: 5 hr 8 min 25 sec) 
Heartbeat CPU 0 instructions: 100000000 cycles: 1010551647 heartbeat IPC: 0.0616547 cumulative IPC: 0.0895149 (Simulation time: 5 hr 8 min 41 sec) 
Heartbeat CPU 0 instructions: 101000000 cycles: 1020049174 heartbeat IPC: 0.105291 cumulative IPC: 0.0896625 (Simulation time: 5 hr 8 min 54 sec) 
Heartbeat CPU 0 instructions: 102000003 cycles: 1027719235 heartbeat IPC: 0.130377 cumulative IPC: 0.0899679 (Simulation time: 5 hr 9 min 7 sec) 
Heartbeat CPU 0 instructions: 103000003 cycles: 1042161193 heartbeat IPC: 0.0692427 cumulative IPC: 0.0896792 (Simulation time: 5 hr 9 min 23 sec) 
Heartbeat CPU 0 instructions: 104000000 cycles: 1056710082 heartbeat IPC: 0.0687336 cumulative IPC: 0.0893895 (Simulation time: 5 hr 9 min 38 sec) 
Heartbeat CPU 0 instructions: 105000000 cycles: 1065079168 heartbeat IPC: 0.119487 cumulative IPC: 0.0896271 (Simulation time: 5 hr 9 min 50 sec) 
Heartbeat CPU 0 instructions: 106000000 cycles: 1072837870 heartbeat IPC: 0.128888 cumulative IPC: 0.0899124 (Simulation time: 5 hr 10 min 2 sec) 
Heartbeat CPU 0 instructions: 107000002 cycles: 1090149130 heartbeat IPC: 0.057766 cumulative IPC: 0.0893995 (Simulation time: 5 hr 10 min 16 sec) 
Heartbeat CPU 0 instructions: 108000000 cycles: 1098565787 heartbeat IPC: 0.118812 cumulative IPC: 0.0896259 (Simulation time: 5 hr 10 min 25 sec) 
Heartbeat CPU 0 instructions: 109000001 cycles: 1106499678 heartbeat IPC: 0.126042 cumulative IPC: 0.0898882 (Simulation time: 5 hr 10 min 34 sec) 
Heartbeat CPU 0 instructions: 110000002 cycles: 1119078335 heartbeat IPC: 0.0794998 cumulative IPC: 0.0897709 (Simulation time: 5 hr 10 min 42 sec) 
Finished CPU 0 instructions: 100000001 cycles: 1113946448 cummulative IPC: 0.0897709 (Simulation time: 5 hr 10 min 42 sec) 

ChampSim completed all CPUs

Region of Interest Statistics

CPU 0 cummulative IPC: 0.0897709 instructions: 100000001 cycles: 1113946448
LLC TOTAL     ACCESS:   18787132  HIT:          0  MISS:   18787132
LLC LOAD      ACCESS:    8480052  HIT:          0  MISS:    8480052
LLC RFO       ACCESS:     206620  HIT:          0  MISS:     206620
LLC PREFETCH  ACCESS:    7992678  HIT:          0  MISS:    7992678
LLC WRITEBACK ACCESS:    2107782  HIT:          0  MISS:    2107782
