
*** ChampSim Multicore Out-of-Order Simulator ***

Warmup Instructions: 10000000
Simulation Instructions: 100000000
Configuration: 2
Number of CPUs: 1
LLC sets: 2048
LLC ways: 16
Off-chip DRAM Channels: 1 Width: 64-bit Data Rate: 1600 MT/s

CPU 0 runs /datasets/cs240c-wi22-a00-public/data/Assignment2-gz/omnetpp_17B.trace.gz
CPU 0 L1D next line prefetcher
CPU 0 L2C IP-based stride prefetcher
config 2, num_core 1, llc_sets 2048
Heartbeat CPU 0 instructions: 1000000 cycles: 559592 heartbeat IPC: 1.78702 cumulative IPC: 1.78702 (Simulation time: 0 hr 2 min 15 sec) 
Heartbeat CPU 0 instructions: 2000002 cycles: 1134020 heartbeat IPC: 1.74087 cumulative IPC: 1.76364 (Simulation time: 0 hr 4 min 29 sec) 
Heartbeat CPU 0 instructions: 3000001 cycles: 1769453 heartbeat IPC: 1.57373 cumulative IPC: 1.69544 (Simulation time: 0 hr 6 min 26 sec) 
Heartbeat CPU 0 instructions: 4000000 cycles: 2334785 heartbeat IPC: 1.76887 cumulative IPC: 1.71322 (Simulation time: 0 hr 8 min 39 sec) 
Heartbeat CPU 0 instructions: 5000002 cycles: 2894305 heartbeat IPC: 1.78725 cumulative IPC: 1.72753 (Simulation time: 0 hr 10 min 59 sec) 
Heartbeat CPU 0 instructions: 6000000 cycles: 3473287 heartbeat IPC: 1.72717 cumulative IPC: 1.72747 (Simulation time: 0 hr 13 min 10 sec) 
Heartbeat CPU 0 instructions: 7000000 cycles: 4038217 heartbeat IPC: 1.77013 cumulative IPC: 1.73344 (Simulation time: 0 hr 15 min 33 sec) 
Heartbeat CPU 0 instructions: 8000000 cycles: 4699951 heartbeat IPC: 1.51118 cumulative IPC: 1.70215 (Simulation time: 0 hr 17 min 43 sec) 
Heartbeat CPU 0 instructions: 9000000 cycles: 5361758 heartbeat IPC: 1.51101 cumulative IPC: 1.67855 (Simulation time: 0 hr 20 min 3 sec) 
Heartbeat CPU 0 instructions: 10000001 cycles: 6023328 heartbeat IPC: 1.51156 cumulative IPC: 1.66021 (Simulation time: 0 hr 22 min 15 sec) 

Warmup complete CPU 0 instructions: 10000001 cycles: 6023328 (Simulation time: 0 hr 22 min 15 sec) 

Heartbeat CPU 0 instructions: 11000001 cycles: 7068144 heartbeat IPC: 0.957106 cumulative IPC: 0.957106 (Simulation time: 0 hr 24 min 30 sec) 
Heartbeat CPU 0 instructions: 12000000 cycles: 8112707 heartbeat IPC: 0.957337 cumulative IPC: 0.957222 (Simulation time: 0 hr 26 min 32 sec) 
Heartbeat CPU 0 instructions: 13000000 cycles: 9182639 heartbeat IPC: 0.934639 cumulative IPC: 0.949574 (Simulation time: 0 hr 28 min 31 sec) 
Heartbeat CPU 0 instructions: 14000001 cycles: 10227020 heartbeat IPC: 0.957506 cumulative IPC: 0.951545 (Simulation time: 0 hr 30 min 42 sec) 
Heartbeat CPU 0 instructions: 15000000 cycles: 11271248 heartbeat IPC: 0.957644 cumulative IPC: 0.952758 (Simulation time: 0 hr 32 min 46 sec) 
Heartbeat CPU 0 instructions: 16000000 cycles: 12315415 heartbeat IPC: 0.957701 cumulative IPC: 0.953579 (Simulation time: 0 hr 34 min 52 sec) 
Heartbeat CPU 0 instructions: 17000000 cycles: 13360972 heartbeat IPC: 0.956428 cumulative IPC: 0.953985 (Simulation time: 0 hr 37 min 2 sec) 
Heartbeat CPU 0 instructions: 18000001 cycles: 14402316 heartbeat IPC: 0.960298 cumulative IPC: 0.954769 (Simulation time: 0 hr 39 min 16 sec) 
Heartbeat CPU 0 instructions: 19000002 cycles: 15437333 heartbeat IPC: 0.966169 cumulative IPC: 0.956023 (Simulation time: 0 hr 41 min 23 sec) 
Heartbeat CPU 0 instructions: 20000000 cycles: 19117584 heartbeat IPC: 0.27172 cumulative IPC: 0.763694 (Simulation time: 0 hr 44 min 22 sec) 
Heartbeat CPU 0 instructions: 21000000 cycles: 21861325 heartbeat IPC: 0.364466 cumulative IPC: 0.694532 (Simulation time: 0 hr 46 min 42 sec) 
Heartbeat CPU 0 instructions: 22000002 cycles: 23804738 heartbeat IPC: 0.51456 cumulative IPC: 0.674862 (Simulation time: 0 hr 49 min 4 sec) 
Heartbeat CPU 0 instructions: 23000000 cycles: 27473956 heartbeat IPC: 0.272537 cumulative IPC: 0.606043 (Simulation time: 0 hr 51 min 45 sec) 
Heartbeat CPU 0 instructions: 24000000 cycles: 31142292 heartbeat IPC: 0.272603 cumulative IPC: 0.557348 (Simulation time: 0 hr 54 min 22 sec) 
Heartbeat CPU 0 instructions: 25000001 cycles: 34087532 heartbeat IPC: 0.339531 cumulative IPC: 0.534489 (Simulation time: 0 hr 56 min 46 sec) 
Heartbeat CPU 0 instructions: 26000001 cycles: 35860211 heartbeat IPC: 0.564118 cumulative IPC: 0.536249 (Simulation time: 0 hr 58 min 48 sec) 
Heartbeat CPU 0 instructions: 27000000 cycles: 39524015 heartbeat IPC: 0.27294 cumulative IPC: 0.507452 (Simulation time: 1 hr 1 min 33 sec) 
Heartbeat CPU 0 instructions: 28000000 cycles: 43199602 heartbeat IPC: 0.272065 cumulative IPC: 0.48418 (Simulation time: 1 hr 4 min 10 sec) 
Heartbeat CPU 0 instructions: 29000000 cycles: 46335703 heartbeat IPC: 0.318867 cumulative IPC: 0.471319 (Simulation time: 1 hr 6 min 35 sec) 
Heartbeat CPU 0 instructions: 30000000 cycles: 47901004 heartbeat IPC: 0.638855 cumulative IPC: 0.477581 (Simulation time: 1 hr 8 min 40 sec) 
Heartbeat CPU 0 instructions: 31000000 cycles: 51554243 heartbeat IPC: 0.27373 cumulative IPC: 0.461225 (Simulation time: 1 hr 11 min 20 sec) 
Heartbeat CPU 0 instructions: 32000000 cycles: 55215617 heartbeat IPC: 0.273122 cumulative IPC: 0.447225 (Simulation time: 1 hr 13 min 54 sec) 
Heartbeat CPU 0 instructions: 33000001 cycles: 58570248 heartbeat IPC: 0.298096 cumulative IPC: 0.437704 (Simulation time: 1 hr 16 min 28 sec) 
Heartbeat CPU 0 instructions: 34000000 cycles: 59914931 heartbeat IPC: 0.743669 cumulative IPC: 0.445338 (Simulation time: 1 hr 18 min 33 sec) 
Heartbeat CPU 0 instructions: 35000003 cycles: 63576939 heartbeat IPC: 0.273075 cumulative IPC: 0.434378 (Simulation time: 1 hr 21 min 19 sec) 
Heartbeat CPU 0 instructions: 36000000 cycles: 67273615 heartbeat IPC: 0.270512 cumulative IPC: 0.424488 (Simulation time: 1 hr 23 min 54 sec) 
Heartbeat CPU 0 instructions: 37000001 cycles: 70507729 heartbeat IPC: 0.309204 cumulative IPC: 0.418706 (Simulation time: 1 hr 26 min 20 sec) 
Heartbeat CPU 0 instructions: 38000000 cycles: 71984162 heartbeat IPC: 0.677307 cumulative IPC: 0.424494 (Simulation time: 1 hr 28 min 24 sec) 
Heartbeat CPU 0 instructions: 39000000 cycles: 75644246 heartbeat IPC: 0.273218 cumulative IPC: 0.416541 (Simulation time: 1 hr 30 min 59 sec) 
Heartbeat CPU 0 instructions: 40000000 cycles: 79319130 heartbeat IPC: 0.272117 cumulative IPC: 0.4093 (Simulation time: 1 hr 33 min 33 sec) 
Heartbeat CPU 0 instructions: 41000002 cycles: 82424199 heartbeat IPC: 0.322055 cumulative IPC: 0.405755 (Simulation time: 1 hr 36 min 1 sec) 
Heartbeat CPU 0 instructions: 42000000 cycles: 84014082 heartbeat IPC: 0.628976 cumulative IPC: 0.410305 (Simulation time: 1 hr 37 min 59 sec) 
Heartbeat CPU 0 instructions: 43000003 cycles: 90204104 heartbeat IPC: 0.161551 cumulative IPC: 0.392014 (Simulation time: 1 hr 41 min 5 sec) 
Heartbeat CPU 0 instructions: 44000000 cycles: 91250838 heartbeat IPC: 0.95535 cumulative IPC: 0.398932 (Simulation time: 1 hr 43 min 6 sec) 
Heartbeat CPU 0 instructions: 45000003 cycles: 92293803 heartbeat IPC: 0.958808 cumulative IPC: 0.405701 (Simulation time: 1 hr 45 min 9 sec) 
Heartbeat CPU 0 instructions: 46000001 cycles: 93337000 heartbeat IPC: 0.95859 cumulative IPC: 0.412307 (Simulation time: 1 hr 46 min 58 sec) 
Heartbeat CPU 0 instructions: 47000001 cycles: 94381555 heartbeat IPC: 0.957345 cumulative IPC: 0.41875 (Simulation time: 1 hr 49 min 2 sec) 
Heartbeat CPU 0 instructions: 48000000 cycles: 95424753 heartbeat IPC: 0.95859 cumulative IPC: 0.425049 (Simulation time: 1 hr 51 min 2 sec) 
Heartbeat CPU 0 instructions: 49000000 cycles: 96466559 heartbeat IPC: 0.959872 cumulative IPC: 0.43121 (Simulation time: 1 hr 52 min 56 sec) 
Heartbeat CPU 0 instructions: 50000000 cycles: 97509358 heartbeat IPC: 0.958958 cumulative IPC: 0.437225 (Simulation time: 1 hr 54 min 59 sec) 
Heartbeat CPU 0 instructions: 51000002 cycles: 98552266 heartbeat IPC: 0.958859 cumulative IPC: 0.443105 (Simulation time: 1 hr 56 min 57 sec) 
Heartbeat CPU 0 instructions: 52000000 cycles: 99596525 heartbeat IPC: 0.957615 cumulative IPC: 0.448846 (Simulation time: 1 hr 58 min 48 sec) 
Heartbeat CPU 0 instructions: 53000001 cycles: 100639339 heartbeat IPC: 0.958945 cumulative IPC: 0.454469 (Simulation time: 2 hr 0 min 49 sec) 
Heartbeat CPU 0 instructions: 54000002 cycles: 101707594 heartbeat IPC: 0.936107 cumulative IPC: 0.459846 (Simulation time: 2 hr 2 min 52 sec) 
Heartbeat CPU 0 instructions: 55000003 cycles: 102747999 heartbeat IPC: 0.961165 cumulative IPC: 0.465238 (Simulation time: 2 hr 4 min 45 sec) 
Heartbeat CPU 0 instructions: 56000000 cycles: 105237409 heartbeat IPC: 0.4017 cumulative IPC: 0.463644 (Simulation time: 2 hr 6 min 58 sec) 
Heartbeat CPU 0 instructions: 57000003 cycles: 107441255 heartbeat IPC: 0.453754 cumulative IPC: 0.463429 (Simulation time: 2 hr 9 min 0 sec) 
Heartbeat CPU 0 instructions: 58000000 cycles: 111113129 heartbeat IPC: 0.27234 cumulative IPC: 0.456752 (Simulation time: 2 hr 11 min 20 sec) 
Heartbeat CPU 0 instructions: 59000003 cycles: 114783924 heartbeat IPC: 0.272421 cumulative IPC: 0.450531 (Simulation time: 2 hr 13 min 53 sec) 
Heartbeat CPU 0 instructions: 60000000 cycles: 117457136 heartbeat IPC: 0.374081 cumulative IPC: 0.448697 (Simulation time: 2 hr 16 min 9 sec) 
Heartbeat CPU 0 instructions: 61000001 cycles: 119478505 heartbeat IPC: 0.494715 cumulative IPC: 0.449517 (Simulation time: 2 hr 18 min 14 sec) 
Heartbeat CPU 0 instructions: 62000001 cycles: 123168321 heartbeat IPC: 0.271016 cumulative IPC: 0.443894 (Simulation time: 2 hr 20 min 45 sec) 
Heartbeat CPU 0 instructions: 63000000 cycles: 126837824 heartbeat IPC: 0.272516 cumulative IPC: 0.438689 (Simulation time: 2 hr 23 min 15 sec) 
Heartbeat CPU 0 instructions: 64000000 cycles: 129688219 heartbeat IPC: 0.350829 cumulative IPC: 0.436664 (Simulation time: 2 hr 25 min 30 sec) 
Heartbeat CPU 0 instructions: 65000000 cycles: 131505858 heartbeat IPC: 0.550164 cumulative IPC: 0.438308 (Simulation time: 2 hr 27 min 46 sec) 
Heartbeat CPU 0 instructions: 66000000 cycles: 135175058 heartbeat IPC: 0.272539 cumulative IPC: 0.433599 (Simulation time: 2 hr 30 min 55 sec) 
Heartbeat CPU 0 instructions: 67000001 cycles: 138864339 heartbeat IPC: 0.271056 cumulative IPC: 0.429084 (Simulation time: 2 hr 33 min 44 sec) 
Heartbeat CPU 0 instructions: 68000000 cycles: 141953074 heartbeat IPC: 0.323757 cumulative IPC: 0.426691 (Simulation time: 2 hr 36 min 18 sec) 
Heartbeat CPU 0 instructions: 69000001 cycles: 143560998 heartbeat IPC: 0.621921 cumulative IPC: 0.428973 (Simulation time: 2 hr 38 min 19 sec) 
Heartbeat CPU 0 instructions: 70000001 cycles: 147223308 heartbeat IPC: 0.273052 cumulative IPC: 0.424929 (Simulation time: 2 hr 40 min 52 sec) 
Heartbeat CPU 0 instructions: 71000001 cycles: 150884737 heartbeat IPC: 0.273117 cumulative IPC: 0.421092 (Simulation time: 2 hr 43 min 20 sec) 
Heartbeat CPU 0 instructions: 72000000 cycles: 153974331 heartbeat IPC: 0.323667 cumulative IPC: 0.419058 (Simulation time: 2 hr 45 min 47 sec) 
Heartbeat CPU 0 instructions: 73000000 cycles: 155595040 heartbeat IPC: 0.617014 cumulative IPC: 0.421203 (Simulation time: 2 hr 47 min 57 sec) 
Heartbeat CPU 0 instructions: 74000003 cycles: 159276848 heartbeat IPC: 0.271607 cumulative IPC: 0.417609 (Simulation time: 2 hr 50 min 41 sec) 
Heartbeat CPU 0 instructions: 75000001 cycles: 162943868 heartbeat IPC: 0.2727 cumulative IPC: 0.414222 (Simulation time: 2 hr 53 min 2 sec) 
Heartbeat CPU 0 instructions: 76000000 cycles: 165913577 heartbeat IPC: 0.336733 cumulative IPC: 0.412783 (Simulation time: 2 hr 55 min 24 sec) 
Heartbeat CPU 0 instructions: 77000001 cycles: 167649379 heartbeat IPC: 0.576103 cumulative IPC: 0.414537 (Simulation time: 2 hr 57 min 35 sec) 
Heartbeat CPU 0 instructions: 78000000 cycles: 171321970 heartbeat IPC: 0.272287 cumulative IPC: 0.411377 (Simulation time: 3 hr 0 min 12 sec) 
Heartbeat CPU 0 instructions: 79000000 cycles: 175177541 heartbeat IPC: 0.259365 cumulative IPC: 0.407912 (Simulation time: 3 hr 3 min 6 sec) 
Heartbeat CPU 0 instructions: 80000000 cycles: 177181640 heartbeat IPC: 0.498977 cumulative IPC: 0.408978 (Simulation time: 3 hr 5 min 18 sec) 
Heartbeat CPU 0 instructions: 81000001 cycles: 179873571 heartbeat IPC: 0.371481 cumulative IPC: 0.408397 (Simulation time: 3 hr 7 min 40 sec) 
Heartbeat CPU 0 instructions: 82000000 cycles: 183566770 heartbeat IPC: 0.270768 cumulative IPC: 0.405535 (Simulation time: 3 hr 10 min 20 sec) 
Heartbeat CPU 0 instructions: 83000000 cycles: 187234245 heartbeat IPC: 0.272667 cumulative IPC: 0.402845 (Simulation time: 3 hr 12 min 51 sec) 
Heartbeat CPU 0 instructions: 84000000 cycles: 189187657 heartbeat IPC: 0.511925 cumulative IPC: 0.404009 (Simulation time: 3 hr 14 min 53 sec) 
Heartbeat CPU 0 instructions: 85000003 cycles: 191904626 heartbeat IPC: 0.368058 cumulative IPC: 0.403483 (Simulation time: 3 hr 17 min 21 sec) 
Heartbeat CPU 0 instructions: 86000001 cycles: 195582419 heartbeat IPC: 0.271902 cumulative IPC: 0.40093 (Simulation time: 3 hr 20 min 10 sec) 
Heartbeat CPU 0 instructions: 87000000 cycles: 199248049 heartbeat IPC: 0.272804 cumulative IPC: 0.3985 (Simulation time: 3 hr 22 min 36 sec) 
Heartbeat CPU 0 instructions: 88000000 cycles: 201070290 heartbeat IPC: 0.548775 cumulative IPC: 0.399904 (Simulation time: 3 hr 24 min 38 sec) 
Heartbeat CPU 0 instructions: 89000000 cycles: 206452718 heartbeat IPC: 0.18579 cumulative IPC: 0.394154 (Simulation time: 3 hr 27 min 44 sec) 
Heartbeat CPU 0 instructions: 90000002 cycles: 207496347 heartbeat IPC: 0.958197 cumulative IPC: 0.397076 (Simulation time: 3 hr 29 min 44 sec) 
Heartbeat CPU 0 instructions: 91000001 cycles: 208540740 heartbeat IPC: 0.957493 cumulative IPC: 0.399966 (Simulation time: 3 hr 31 min 33 sec) 
Heartbeat CPU 0 instructions: 92000000 cycles: 209584386 heartbeat IPC: 0.958178 cumulative IPC: 0.402828 (Simulation time: 3 hr 33 min 34 sec) 
Heartbeat CPU 0 instructions: 93000002 cycles: 210628726 heartbeat IPC: 0.957545 cumulative IPC: 0.405659 (Simulation time: 3 hr 35 min 25 sec) 
Heartbeat CPU 0 instructions: 94000001 cycles: 211672573 heartbeat IPC: 0.957994 cumulative IPC: 0.408462 (Simulation time: 3 hr 37 min 30 sec) 
Heartbeat CPU 0 instructions: 95000000 cycles: 212716858 heartbeat IPC: 0.957592 cumulative IPC: 0.411237 (Simulation time: 3 hr 39 min 28 sec) 
Heartbeat CPU 0 instructions: 96000000 cycles: 213761838 heartbeat IPC: 0.956956 cumulative IPC: 0.413982 (Simulation time: 3 hr 41 min 25 sec) 
Heartbeat CPU 0 instructions: 97000002 cycles: 214832730 heartbeat IPC: 0.933803 cumulative IPC: 0.416648 (Simulation time: 3 hr 43 min 25 sec) 
Heartbeat CPU 0 instructions: 98000000 cycles: 215878560 heartbeat IPC: 0.956176 cumulative IPC: 0.419337 (Simulation time: 3 hr 45 min 31 sec) 
Heartbeat CPU 0 instructions: 99000003 cycles: 216916987 heartbeat IPC: 0.962998 cumulative IPC: 0.422014 (Simulation time: 3 hr 47 min 18 sec) 
Heartbeat CPU 0 instructions: 100000000 cycles: 217953461 heartbeat IPC: 0.964807 cumulative IPC: 0.424668 (Simulation time: 3 hr 49 min 23 sec) 
Heartbeat CPU 0 instructions: 101000001 cycles: 218994679 heartbeat IPC: 0.960415 cumulative IPC: 0.427288 (Simulation time: 3 hr 51 min 16 sec) 
Heartbeat CPU 0 instructions: 102000001 cycles: 222597903 heartbeat IPC: 0.277529 cumulative IPC: 0.424796 (Simulation time: 3 hr 53 min 59 sec) 
Heartbeat CPU 0 instructions: 103000001 cycles: 224064377 heartbeat IPC: 0.681908 cumulative IPC: 0.426525 (Simulation time: 3 hr 55 min 58 sec) 
Heartbeat CPU 0 instructions: 104000000 cycles: 227351127 heartbeat IPC: 0.304252 cumulative IPC: 0.424709 (Simulation time: 3 hr 58 min 28 sec) 
Heartbeat CPU 0 instructions: 105000000 cycles: 231015231 heartbeat IPC: 0.272918 cumulative IPC: 0.422237 (Simulation time: 4 hr 0 min 54 sec) 
Heartbeat CPU 0 instructions: 106000000 cycles: 234601020 heartbeat IPC: 0.278879 cumulative IPC: 0.419988 (Simulation time: 4 hr 3 min 30 sec) 
Heartbeat CPU 0 instructions: 107000001 cycles: 236254718 heartbeat IPC: 0.604706 cumulative IPC: 0.421315 (Simulation time: 4 hr 5 min 31 sec) 
Heartbeat CPU 0 instructions: 108000000 cycles: 239366964 heartbeat IPC: 0.321311 cumulative IPC: 0.419981 (Simulation time: 4 hr 7 min 59 sec) 
Heartbeat CPU 0 instructions: 109000000 cycles: 243043656 heartbeat IPC: 0.271984 cumulative IPC: 0.417686 (Simulation time: 4 hr 10 min 33 sec) 
Heartbeat CPU 0 instructions: 110000000 cycles: 246686970 heartbeat IPC: 0.274475 cumulative IPC: 0.415518 (Simulation time: 4 hr 13 min 24 sec) 
Finished CPU 0 instructions: 100000003 cycles: 240663647 cummulative IPC: 0.415518 (Simulation time: 4 hr 13 min 24 sec) 

ChampSim completed all CPUs

Region of Interest Statistics

CPU 0 cummulative IPC: 0.415518 instructions: 100000003 cycles: 240663647
LLC TOTAL     ACCESS:    3289944  HIT:          0  MISS:    3289944
LLC LOAD      ACCESS:    1593046  HIT:          0  MISS:    1593046
LLC RFO       ACCESS:       5220  HIT:          0  MISS:       5220
LLC PREFETCH  ACCESS:    1674830  HIT:          0  MISS:    1674830
LLC WRITEBACK ACCESS:      16848  HIT:          0  MISS:      16848
