
*** ChampSim Multicore Out-of-Order Simulator ***

Warmup Instructions: 10000000
Simulation Instructions: 100000000
Configuration: 2
Number of CPUs: 1
LLC sets: 2048
LLC ways: 16
Off-chip DRAM Channels: 1 Width: 64-bit Data Rate: 1600 MT/s

CPU 0 runs /datasets/cs240c-wi22-a00-public/data/Assignment2-gz/calculix_3812B.trace.gz
CPU 0 L1D next line prefetcher
CPU 0 L2C IP-based stride prefetcher
Initialize SRRIP state
Heartbeat CPU 0 instructions: 1000001 cycles: 478689 heartbeat IPC: 2.08904 cumulative IPC: 2.08904 (Simulation time: 0 hr 2 min 50 sec) 
Heartbeat CPU 0 instructions: 2000002 cycles: 956483 heartbeat IPC: 2.09295 cumulative IPC: 2.091 (Simulation time: 0 hr 5 min 25 sec) 
Heartbeat CPU 0 instructions: 3000002 cycles: 1434999 heartbeat IPC: 2.08979 cumulative IPC: 2.0906 (Simulation time: 0 hr 7 min 52 sec) 
Heartbeat CPU 0 instructions: 4000000 cycles: 1907482 heartbeat IPC: 2.11647 cumulative IPC: 2.09701 (Simulation time: 0 hr 10 min 23 sec) 
Heartbeat CPU 0 instructions: 5000000 cycles: 2356309 heartbeat IPC: 2.22803 cumulative IPC: 2.12196 (Simulation time: 0 hr 12 min 30 sec) 
Heartbeat CPU 0 instructions: 6000003 cycles: 2761685 heartbeat IPC: 2.46685 cumulative IPC: 2.17259 (Simulation time: 0 hr 14 min 31 sec) 
Heartbeat CPU 0 instructions: 7000002 cycles: 3154795 heartbeat IPC: 2.54381 cumulative IPC: 2.21885 (Simulation time: 0 hr 16 min 28 sec) 
Heartbeat CPU 0 instructions: 8000000 cycles: 3547936 heartbeat IPC: 2.54361 cumulative IPC: 2.25483 (Simulation time: 0 hr 18 min 31 sec) 
Heartbeat CPU 0 instructions: 9000000 cycles: 3940925 heartbeat IPC: 2.5446 cumulative IPC: 2.28373 (Simulation time: 0 hr 20 min 32 sec) 
Heartbeat CPU 0 instructions: 10000003 cycles: 4334014 heartbeat IPC: 2.54396 cumulative IPC: 2.30733 (Simulation time: 0 hr 22 min 43 sec) 

Warmup complete CPU 0 instructions: 10000003 cycles: 4334014 (Simulation time: 0 hr 22 min 43 sec) 

Heartbeat CPU 0 instructions: 11000001 cycles: 4770214 heartbeat IPC: 2.29252 cumulative IPC: 2.29252 (Simulation time: 0 hr 25 min 6 sec) 
Heartbeat CPU 0 instructions: 12000000 cycles: 5205542 heartbeat IPC: 2.29712 cumulative IPC: 2.29482 (Simulation time: 0 hr 27 min 23 sec) 
Heartbeat CPU 0 instructions: 13000002 cycles: 5640784 heartbeat IPC: 2.29758 cumulative IPC: 2.29574 (Simulation time: 0 hr 29 min 32 sec) 
Heartbeat CPU 0 instructions: 14000000 cycles: 6436084 heartbeat IPC: 1.25738 cumulative IPC: 1.90288 (Simulation time: 0 hr 32 min 18 sec) 
Heartbeat CPU 0 instructions: 15000003 cycles: 6910646 heartbeat IPC: 2.10721 cumulative IPC: 1.94052 (Simulation time: 0 hr 34 min 30 sec) 
Heartbeat CPU 0 instructions: 16000000 cycles: 7355250 heartbeat IPC: 2.24919 cumulative IPC: 1.98594 (Simulation time: 0 hr 37 min 2 sec) 
Heartbeat CPU 0 instructions: 17000001 cycles: 7797535 heartbeat IPC: 2.26099 cumulative IPC: 2.02106 (Simulation time: 0 hr 39 min 14 sec) 
Heartbeat CPU 0 instructions: 18000001 cycles: 8235589 heartbeat IPC: 2.28282 cumulative IPC: 2.05045 (Simulation time: 0 hr 41 min 28 sec) 
Heartbeat CPU 0 instructions: 19000001 cycles: 8675172 heartbeat IPC: 2.27488 cumulative IPC: 2.07318 (Simulation time: 0 hr 43 min 30 sec) 
Heartbeat CPU 0 instructions: 20000000 cycles: 9196848 heartbeat IPC: 1.9169 cumulative IPC: 2.05641 (Simulation time: 0 hr 45 min 45 sec) 
Heartbeat CPU 0 instructions: 21000001 cycles: 9636094 heartbeat IPC: 2.27663 cumulative IPC: 2.07466 (Simulation time: 0 hr 48 min 2 sec) 
Heartbeat CPU 0 instructions: 22000000 cycles: 10076059 heartbeat IPC: 2.27291 cumulative IPC: 2.08985 (Simulation time: 0 hr 50 min 11 sec) 
Heartbeat CPU 0 instructions: 23000001 cycles: 10515509 heartbeat IPC: 2.27557 cumulative IPC: 2.10305 (Simulation time: 0 hr 52 min 31 sec) 
Heartbeat CPU 0 instructions: 24000000 cycles: 10955876 heartbeat IPC: 2.27083 cumulative IPC: 2.11421 (Simulation time: 0 hr 54 min 34 sec) 
Heartbeat CPU 0 instructions: 25000003 cycles: 11480849 heartbeat IPC: 1.90487 cumulative IPC: 2.09883 (Simulation time: 0 hr 56 min 49 sec) 
Heartbeat CPU 0 instructions: 26000003 cycles: 12028316 heartbeat IPC: 1.82659 cumulative IPC: 2.07946 (Simulation time: 0 hr 58 min 59 sec) 
Heartbeat CPU 0 instructions: 27000000 cycles: 12562746 heartbeat IPC: 1.87115 cumulative IPC: 2.06593 (Simulation time: 1 hr 1 min 8 sec) 
Heartbeat CPU 0 instructions: 28000000 cycles: 13207180 heartbeat IPC: 1.55175 cumulative IPC: 2.02859 (Simulation time: 1 hr 3 min 34 sec) 
Heartbeat CPU 0 instructions: 29000002 cycles: 13685036 heartbeat IPC: 2.09268 cumulative IPC: 2.03186 (Simulation time: 1 hr 5 min 43 sec) 
Heartbeat CPU 0 instructions: 30000001 cycles: 14238512 heartbeat IPC: 1.80676 cumulative IPC: 2.01928 (Simulation time: 1 hr 8 min 3 sec) 
Heartbeat CPU 0 instructions: 31000001 cycles: 14788240 heartbeat IPC: 1.81908 cumulative IPC: 2.00876 (Simulation time: 1 hr 10 min 18 sec) 
Heartbeat CPU 0 instructions: 32000000 cycles: 15520962 heartbeat IPC: 1.36477 cumulative IPC: 1.96658 (Simulation time: 1 hr 12 min 55 sec) 
Heartbeat CPU 0 instructions: 33000003 cycles: 16225570 heartbeat IPC: 1.41923 cumulative IPC: 1.93415 (Simulation time: 1 hr 15 min 28 sec) 
Heartbeat CPU 0 instructions: 34000000 cycles: 16925476 heartbeat IPC: 1.42876 cumulative IPC: 1.90605 (Simulation time: 1 hr 18 min 11 sec) 
Heartbeat CPU 0 instructions: 35000000 cycles: 17598675 heartbeat IPC: 1.48544 cumulative IPC: 1.88471 (Simulation time: 1 hr 20 min 45 sec) 
Heartbeat CPU 0 instructions: 36000000 cycles: 18240008 heartbeat IPC: 1.55925 cumulative IPC: 1.8697 (Simulation time: 1 hr 23 min 17 sec) 
Heartbeat CPU 0 instructions: 37000002 cycles: 18865825 heartbeat IPC: 1.59791 cumulative IPC: 1.85799 (Simulation time: 1 hr 25 min 52 sec) 
Heartbeat CPU 0 instructions: 38000003 cycles: 19500832 heartbeat IPC: 1.57479 cumulative IPC: 1.84614 (Simulation time: 1 hr 28 min 22 sec) 
Heartbeat CPU 0 instructions: 39000003 cycles: 20275885 heartbeat IPC: 1.29023 cumulative IPC: 1.81911 (Simulation time: 1 hr 31 min 1 sec) 
Heartbeat CPU 0 instructions: 40000000 cycles: 21115293 heartbeat IPC: 1.19131 cumulative IPC: 1.78771 (Simulation time: 1 hr 33 min 19 sec) 
Heartbeat CPU 0 instructions: 41000000 cycles: 22047146 heartbeat IPC: 1.07313 cumulative IPC: 1.75011 (Simulation time: 1 hr 35 min 46 sec) 
Heartbeat CPU 0 instructions: 42000001 cycles: 22648683 heartbeat IPC: 1.66241 cumulative IPC: 1.74723 (Simulation time: 1 hr 38 min 10 sec) 
Heartbeat CPU 0 instructions: 43000000 cycles: 23269316 heartbeat IPC: 1.61126 cumulative IPC: 1.74278 (Simulation time: 1 hr 40 min 40 sec) 
Heartbeat CPU 0 instructions: 44000000 cycles: 23946072 heartbeat IPC: 1.47764 cumulative IPC: 1.73363 (Simulation time: 1 hr 43 min 8 sec) 
Heartbeat CPU 0 instructions: 45000002 cycles: 24620481 heartbeat IPC: 1.48278 cumulative IPC: 1.72529 (Simulation time: 1 hr 45 min 36 sec) 
Heartbeat CPU 0 instructions: 46000002 cycles: 25350540 heartbeat IPC: 1.36975 cumulative IPC: 1.71294 (Simulation time: 1 hr 47 min 57 sec) 
Heartbeat CPU 0 instructions: 47000002 cycles: 26200029 heartbeat IPC: 1.17718 cumulative IPC: 1.69212 (Simulation time: 1 hr 50 min 29 sec) 
Heartbeat CPU 0 instructions: 48000000 cycles: 26646982 heartbeat IPC: 2.23737 cumulative IPC: 1.70305 (Simulation time: 1 hr 52 min 28 sec) 
Heartbeat CPU 0 instructions: 49000000 cycles: 27093898 heartbeat IPC: 2.23756 cumulative IPC: 1.71354 (Simulation time: 1 hr 54 min 33 sec) 
Heartbeat CPU 0 instructions: 50000000 cycles: 27568322 heartbeat IPC: 2.10782 cumulative IPC: 1.72159 (Simulation time: 1 hr 56 min 39 sec) 
Heartbeat CPU 0 instructions: 51000000 cycles: 28150584 heartbeat IPC: 1.71744 cumulative IPC: 1.72149 (Simulation time: 1 hr 59 min 1 sec) 
Heartbeat CPU 0 instructions: 52000000 cycles: 28699095 heartbeat IPC: 1.82312 cumulative IPC: 1.72378 (Simulation time: 2 hr 1 min 14 sec) 
Heartbeat CPU 0 instructions: 53000000 cycles: 29158971 heartbeat IPC: 2.1745 cumulative IPC: 1.73213 (Simulation time: 2 hr 3 min 34 sec) 
Heartbeat CPU 0 instructions: 54000003 cycles: 29613494 heartbeat IPC: 2.20012 cumulative IPC: 1.74054 (Simulation time: 2 hr 5 min 49 sec) 
Heartbeat CPU 0 instructions: 55000001 cycles: 30060995 heartbeat IPC: 2.23463 cumulative IPC: 1.74914 (Simulation time: 2 hr 7 min 55 sec) 
Heartbeat CPU 0 instructions: 56000000 cycles: 30504810 heartbeat IPC: 2.25319 cumulative IPC: 1.75768 (Simulation time: 2 hr 10 min 5 sec) 
Heartbeat CPU 0 instructions: 57000003 cycles: 30948264 heartbeat IPC: 2.25503 cumulative IPC: 1.76597 (Simulation time: 2 hr 12 min 15 sec) 
Heartbeat CPU 0 instructions: 58000002 cycles: 31401661 heartbeat IPC: 2.20557 cumulative IPC: 1.77333 (Simulation time: 2 hr 14 min 39 sec) 
Heartbeat CPU 0 instructions: 59000001 cycles: 31987084 heartbeat IPC: 1.70816 cumulative IPC: 1.77196 (Simulation time: 2 hr 16 min 52 sec) 
Heartbeat CPU 0 instructions: 60000000 cycles: 32490466 heartbeat IPC: 1.98656 cumulative IPC: 1.77579 (Simulation time: 2 hr 19 min 11 sec) 
Heartbeat CPU 0 instructions: 61000003 cycles: 32977838 heartbeat IPC: 2.05183 cumulative IPC: 1.78049 (Simulation time: 2 hr 21 min 26 sec) 
Heartbeat CPU 0 instructions: 62000002 cycles: 33447407 heartbeat IPC: 2.12961 cumulative IPC: 1.78612 (Simulation time: 2 hr 23 min 38 sec) 
Heartbeat CPU 0 instructions: 63000003 cycles: 33899167 heartbeat IPC: 2.21357 cumulative IPC: 1.79265 (Simulation time: 2 hr 25 min 47 sec) 
Heartbeat CPU 0 instructions: 64000000 cycles: 34339340 heartbeat IPC: 2.27183 cumulative IPC: 1.79968 (Simulation time: 2 hr 27 min 40 sec) 
Heartbeat CPU 0 instructions: 65000000 cycles: 34968897 heartbeat IPC: 1.58842 cumulative IPC: 1.79534 (Simulation time: 2 hr 30 min 3 sec) 
Heartbeat CPU 0 instructions: 66000002 cycles: 35527834 heartbeat IPC: 1.78911 cumulative IPC: 1.79523 (Simulation time: 2 hr 32 min 29 sec) 
Heartbeat CPU 0 instructions: 67000002 cycles: 35984840 heartbeat IPC: 2.18816 cumulative IPC: 1.8009 (Simulation time: 2 hr 34 min 37 sec) 
Heartbeat CPU 0 instructions: 68000000 cycles: 36426828 heartbeat IPC: 2.2625 cumulative IPC: 1.80726 (Simulation time: 2 hr 36 min 47 sec) 
Heartbeat CPU 0 instructions: 69000001 cycles: 36959437 heartbeat IPC: 1.87755 cumulative IPC: 1.80841 (Simulation time: 2 hr 39 min 3 sec) 
Heartbeat CPU 0 instructions: 70000000 cycles: 37416288 heartbeat IPC: 2.1889 cumulative IPC: 1.81366 (Simulation time: 2 hr 41 min 24 sec) 
Heartbeat CPU 0 instructions: 71000000 cycles: 37858675 heartbeat IPC: 2.26046 cumulative IPC: 1.81956 (Simulation time: 2 hr 43 min 26 sec) 
Heartbeat CPU 0 instructions: 72000000 cycles: 38335922 heartbeat IPC: 2.09535 cumulative IPC: 1.82343 (Simulation time: 2 hr 45 min 41 sec) 
Heartbeat CPU 0 instructions: 73000001 cycles: 38890928 heartbeat IPC: 1.80178 cumulative IPC: 1.82308 (Simulation time: 2 hr 48 min 0 sec) 
Heartbeat CPU 0 instructions: 74000002 cycles: 39518842 heartbeat IPC: 1.59258 cumulative IPC: 1.81897 (Simulation time: 2 hr 50 min 21 sec) 
Heartbeat CPU 0 instructions: 75000000 cycles: 40062557 heartbeat IPC: 1.8392 cumulative IPC: 1.81927 (Simulation time: 2 hr 52 min 49 sec) 
Heartbeat CPU 0 instructions: 76000000 cycles: 40799871 heartbeat IPC: 1.35627 cumulative IPC: 1.80991 (Simulation time: 2 hr 55 min 23 sec) 
Heartbeat CPU 0 instructions: 77000000 cycles: 41520834 heartbeat IPC: 1.38703 cumulative IPC: 1.80171 (Simulation time: 2 hr 57 min 59 sec) 
Heartbeat CPU 0 instructions: 78000003 cycles: 42239415 heartbeat IPC: 1.39164 cumulative IPC: 1.79394 (Simulation time: 3 hr 0 min 27 sec) 
Heartbeat CPU 0 instructions: 79000000 cycles: 42950316 heartbeat IPC: 1.40666 cumulative IPC: 1.78681 (Simulation time: 3 hr 2 min 49 sec) 
Heartbeat CPU 0 instructions: 80000000 cycles: 43635398 heartbeat IPC: 1.45968 cumulative IPC: 1.78111 (Simulation time: 3 hr 5 min 14 sec) 
Heartbeat CPU 0 instructions: 81000001 cycles: 44299730 heartbeat IPC: 1.50527 cumulative IPC: 1.77652 (Simulation time: 3 hr 7 min 40 sec) 
Heartbeat CPU 0 instructions: 82000002 cycles: 44942688 heartbeat IPC: 1.55531 cumulative IPC: 1.77302 (Simulation time: 3 hr 10 min 14 sec) 
Heartbeat CPU 0 instructions: 83000002 cycles: 45754779 heartbeat IPC: 1.23139 cumulative IPC: 1.7624 (Simulation time: 3 hr 12 min 45 sec) 
Heartbeat CPU 0 instructions: 84000000 cycles: 46343398 heartbeat IPC: 1.69889 cumulative IPC: 1.76151 (Simulation time: 3 hr 14 min 44 sec) 
Heartbeat CPU 0 instructions: 85000000 cycles: 46798123 heartbeat IPC: 2.19913 cumulative IPC: 1.7662 (Simulation time: 3 hr 17 min 5 sec) 
Heartbeat CPU 0 instructions: 86000001 cycles: 47250515 heartbeat IPC: 2.21047 cumulative IPC: 1.77088 (Simulation time: 3 hr 19 min 17 sec) 
Heartbeat CPU 0 instructions: 87000002 cycles: 47706136 heartbeat IPC: 2.19481 cumulative IPC: 1.77533 (Simulation time: 3 hr 21 min 25 sec) 
Heartbeat CPU 0 instructions: 88000000 cycles: 48157165 heartbeat IPC: 2.21715 cumulative IPC: 1.77988 (Simulation time: 3 hr 23 min 36 sec) 
Heartbeat CPU 0 instructions: 89000003 cycles: 48606710 heartbeat IPC: 2.22448 cumulative IPC: 1.7844 (Simulation time: 3 hr 25 min 56 sec) 
Heartbeat CPU 0 instructions: 90000003 cycles: 49056683 heartbeat IPC: 2.22236 cumulative IPC: 1.7888 (Simulation time: 3 hr 28 min 5 sec) 
Heartbeat CPU 0 instructions: 91000003 cycles: 49518749 heartbeat IPC: 2.16419 cumulative IPC: 1.79264 (Simulation time: 3 hr 30 min 29 sec) 
Heartbeat CPU 0 instructions: 92000000 cycles: 49989286 heartbeat IPC: 2.12523 cumulative IPC: 1.79607 (Simulation time: 3 hr 32 min 47 sec) 
Heartbeat CPU 0 instructions: 93000000 cycles: 50435179 heartbeat IPC: 2.24269 cumulative IPC: 1.80039 (Simulation time: 3 hr 34 min 57 sec) 
Heartbeat CPU 0 instructions: 94000003 cycles: 50880455 heartbeat IPC: 2.2458 cumulative IPC: 1.80465 (Simulation time: 3 hr 37 min 22 sec) 
Heartbeat CPU 0 instructions: 95000001 cycles: 51489515 heartbeat IPC: 1.64187 cumulative IPC: 1.80255 (Simulation time: 3 hr 39 min 55 sec) 
Heartbeat CPU 0 instructions: 96000000 cycles: 52048911 heartbeat IPC: 1.78764 cumulative IPC: 1.80237 (Simulation time: 3 hr 42 min 10 sec) 
Heartbeat CPU 0 instructions: 97000000 cycles: 52520646 heartbeat IPC: 2.11983 cumulative IPC: 1.80548 (Simulation time: 3 hr 44 min 20 sec) 
Heartbeat CPU 0 instructions: 98000003 cycles: 52973913 heartbeat IPC: 2.20621 cumulative IPC: 1.80921 (Simulation time: 3 hr 46 min 34 sec) 
Heartbeat CPU 0 instructions: 99000000 cycles: 53416841 heartbeat IPC: 2.2577 cumulative IPC: 1.81326 (Simulation time: 3 hr 48 min 39 sec) 
Heartbeat CPU 0 instructions: 100000000 cycles: 53856996 heartbeat IPC: 2.27193 cumulative IPC: 1.81734 (Simulation time: 3 hr 50 min 41 sec) 
Heartbeat CPU 0 instructions: 101000003 cycles: 54296580 heartbeat IPC: 2.27488 cumulative IPC: 1.82136 (Simulation time: 3 hr 52 min 48 sec) 
Heartbeat CPU 0 instructions: 102000002 cycles: 54816700 heartbeat IPC: 1.92263 cumulative IPC: 1.82241 (Simulation time: 3 hr 54 min 46 sec) 
Heartbeat CPU 0 instructions: 103000000 cycles: 55325933 heartbeat IPC: 1.96373 cumulative IPC: 1.82382 (Simulation time: 3 hr 56 min 52 sec) 
Heartbeat CPU 0 instructions: 104000000 cycles: 55810704 heartbeat IPC: 2.06283 cumulative IPC: 1.82607 (Simulation time: 3 hr 59 min 1 sec) 
Heartbeat CPU 0 instructions: 105000000 cycles: 56280162 heartbeat IPC: 2.13012 cumulative IPC: 1.82882 (Simulation time: 4 hr 1 min 4 sec) 
Heartbeat CPU 0 instructions: 106000003 cycles: 56729993 heartbeat IPC: 2.22306 cumulative IPC: 1.8322 (Simulation time: 4 hr 2 min 58 sec) 
Heartbeat CPU 0 instructions: 107000003 cycles: 57173400 heartbeat IPC: 2.25526 cumulative IPC: 1.83575 (Simulation time: 4 hr 4 min 59 sec) 
Heartbeat CPU 0 instructions: 108000000 cycles: 57689632 heartbeat IPC: 1.93711 cumulative IPC: 1.83673 (Simulation time: 4 hr 7 min 11 sec) 
Heartbeat CPU 0 instructions: 109000002 cycles: 58344660 heartbeat IPC: 1.52666 cumulative IPC: 1.83297 (Simulation time: 4 hr 9 min 25 sec) 
Heartbeat CPU 0 instructions: 110000003 cycles: 58788346 heartbeat IPC: 2.25385 cumulative IPC: 1.8364 (Simulation time: 4 hr 11 min 29 sec) 
Finished CPU 0 instructions: 100000000 cycles: 54454332 cummulative IPC: 1.8364 (Simulation time: 4 hr 11 min 29 sec) 

ChampSim completed all CPUs

Region of Interest Statistics

CPU 0 cummulative IPC: 1.8364 instructions: 100000000 cycles: 54454332
LLC TOTAL     ACCESS:    1161488  HIT:    1074319  MISS:      87169
LLC LOAD      ACCESS:     133674  HIT:     126974  MISS:       6700
LLC RFO       ACCESS:      47550  HIT:      19956  MISS:      27594
LLC PREFETCH  ACCESS:     680443  HIT:     628898  MISS:      51545
LLC WRITEBACK ACCESS:     299821  HIT:     298491  MISS:       1330
Insertion Distribution: 
	LOAD 2357 0 4852 268 
	RFO 21462 0 12095 93 
	PREF 0 8825 32571 17510 
	WRITEBACK 0 0 0 2034 
Total Prefetch Downgrades: 7282
