
*** ChampSim Multicore Out-of-Order Simulator ***

Warmup Instructions: 10000000
Simulation Instructions: 100000000
Configuration: 2
Number of CPUs: 1
LLC sets: 2048
LLC ways: 16
Off-chip DRAM Channels: 1 Width: 64-bit Data Rate: 1600 MT/s

CPU 0 runs /datasets/cs240c-wi22-a00-public/data/Assignment2-gz/GemsFDTD_109B.trace.gz
CPU 0 L1D next line prefetcher
CPU 0 L2C IP-based stride prefetcher
Initialize SRRIP state
Heartbeat CPU 0 instructions: 1000002 cycles: 579772 heartbeat IPC: 1.72482 cumulative IPC: 1.72482 (Simulation time: 0 hr 3 min 8 sec) 
Heartbeat CPU 0 instructions: 2000001 cycles: 1159543 heartbeat IPC: 1.72482 cumulative IPC: 1.72482 (Simulation time: 0 hr 6 min 20 sec) 
Heartbeat CPU 0 instructions: 3000000 cycles: 1738728 heartbeat IPC: 1.72656 cumulative IPC: 1.7254 (Simulation time: 0 hr 9 min 25 sec) 
Heartbeat CPU 0 instructions: 4000000 cycles: 2317734 heartbeat IPC: 1.7271 cumulative IPC: 1.72582 (Simulation time: 0 hr 12 min 24 sec) 
Heartbeat CPU 0 instructions: 5000000 cycles: 2897564 heartbeat IPC: 1.72464 cumulative IPC: 1.72559 (Simulation time: 0 hr 15 min 41 sec) 
Heartbeat CPU 0 instructions: 6000002 cycles: 3478281 heartbeat IPC: 1.72201 cumulative IPC: 1.72499 (Simulation time: 0 hr 18 min 38 sec) 
Heartbeat CPU 0 instructions: 7000001 cycles: 4058958 heartbeat IPC: 1.72213 cumulative IPC: 1.72458 (Simulation time: 0 hr 21 min 54 sec) 
Heartbeat CPU 0 instructions: 8000000 cycles: 4639134 heartbeat IPC: 1.72361 cumulative IPC: 1.72446 (Simulation time: 0 hr 25 min 14 sec) 
Heartbeat CPU 0 instructions: 9000002 cycles: 5219298 heartbeat IPC: 1.72365 cumulative IPC: 1.72437 (Simulation time: 0 hr 28 min 16 sec) 
Heartbeat CPU 0 instructions: 10000001 cycles: 5799488 heartbeat IPC: 1.72357 cumulative IPC: 1.72429 (Simulation time: 0 hr 31 min 16 sec) 

Warmup complete CPU 0 instructions: 10000001 cycles: 5799488 (Simulation time: 0 hr 31 min 16 sec) 

Heartbeat CPU 0 instructions: 11000002 cycles: 6842030 heartbeat IPC: 0.959195 cumulative IPC: 0.959195 (Simulation time: 0 hr 34 min 13 sec) 
Heartbeat CPU 0 instructions: 12000000 cycles: 7887031 heartbeat IPC: 0.956935 cumulative IPC: 0.958064 (Simulation time: 0 hr 37 min 14 sec) 
Heartbeat CPU 0 instructions: 13000001 cycles: 8972865 heartbeat IPC: 0.920952 cumulative IPC: 0.945365 (Simulation time: 0 hr 40 min 10 sec) 
Heartbeat CPU 0 instructions: 14000002 cycles: 10028560 heartbeat IPC: 0.947244 cumulative IPC: 0.945834 (Simulation time: 0 hr 43 min 15 sec) 
Heartbeat CPU 0 instructions: 15000000 cycles: 11097776 heartbeat IPC: 0.935263 cumulative IPC: 0.943701 (Simulation time: 0 hr 46 min 28 sec) 
Heartbeat CPU 0 instructions: 16000000 cycles: 12158976 heartbeat IPC: 0.942329 cumulative IPC: 0.943472 (Simulation time: 0 hr 49 min 49 sec) 
Heartbeat CPU 0 instructions: 17000000 cycles: 13246419 heartbeat IPC: 0.919588 cumulative IPC: 0.939984 (Simulation time: 0 hr 53 min 0 sec) 
Heartbeat CPU 0 instructions: 18000003 cycles: 14294681 heartbeat IPC: 0.953963 cumulative IPC: 0.941709 (Simulation time: 0 hr 55 min 57 sec) 
Heartbeat CPU 0 instructions: 19000001 cycles: 15362740 heartbeat IPC: 0.936276 cumulative IPC: 0.941102 (Simulation time: 0 hr 58 min 54 sec) 
Heartbeat CPU 0 instructions: 20000000 cycles: 16651281 heartbeat IPC: 0.776071 cumulative IPC: 0.921507 (Simulation time: 1 hr 1 min 49 sec) 
Heartbeat CPU 0 instructions: 21000001 cycles: 17928197 heartbeat IPC: 0.783138 cumulative IPC: 0.906939 (Simulation time: 1 hr 4 min 39 sec) 
Heartbeat CPU 0 instructions: 22000001 cycles: 21348758 heartbeat IPC: 0.29235 cumulative IPC: 0.77174 (Simulation time: 1 hr 7 min 47 sec) 
Heartbeat CPU 0 instructions: 23000001 cycles: 22614580 heartbeat IPC: 0.79 cumulative IPC: 0.773115 (Simulation time: 1 hr 10 min 52 sec) 
Heartbeat CPU 0 instructions: 24000000 cycles: 26235398 heartbeat IPC: 0.27618 cumulative IPC: 0.685069 (Simulation time: 1 hr 14 min 15 sec) 
Heartbeat CPU 0 instructions: 25000003 cycles: 27482266 heartbeat IPC: 0.802012 cumulative IPC: 0.691793 (Simulation time: 1 hr 17 min 12 sec) 
Heartbeat CPU 0 instructions: 26000000 cycles: 31107451 heartbeat IPC: 0.275847 cumulative IPC: 0.632212 (Simulation time: 1 hr 20 min 33 sec) 
Heartbeat CPU 0 instructions: 27000000 cycles: 32322924 heartbeat IPC: 0.822725 cumulative IPC: 0.640943 (Simulation time: 1 hr 23 min 34 sec) 
Heartbeat CPU 0 instructions: 28000000 cycles: 35794096 heartbeat IPC: 0.288087 cumulative IPC: 0.600108 (Simulation time: 1 hr 27 min 5 sec) 
Heartbeat CPU 0 instructions: 29000000 cycles: 37014207 heartbeat IPC: 0.819598 cumulative IPC: 0.608687 (Simulation time: 1 hr 30 min 20 sec) 
Heartbeat CPU 0 instructions: 30000003 cycles: 38373440 heartbeat IPC: 0.735711 cumulative IPC: 0.613988 (Simulation time: 1 hr 33 min 11 sec) 
Heartbeat CPU 0 instructions: 31000002 cycles: 39540496 heartbeat IPC: 0.856856 cumulative IPC: 0.622388 (Simulation time: 1 hr 36 min 19 sec) 
Heartbeat CPU 0 instructions: 32000000 cycles: 40859009 heartbeat IPC: 0.758429 cumulative IPC: 0.627504 (Simulation time: 1 hr 39 min 2 sec) 
Heartbeat CPU 0 instructions: 33000003 cycles: 42023125 heartbeat IPC: 0.859024 cumulative IPC: 0.634945 (Simulation time: 1 hr 41 min 54 sec) 
Heartbeat CPU 0 instructions: 34000002 cycles: 43333581 heartbeat IPC: 0.763092 cumulative IPC: 0.639419 (Simulation time: 1 hr 44 min 43 sec) 
Heartbeat CPU 0 instructions: 35000003 cycles: 44520888 heartbeat IPC: 0.842243 cumulative IPC: 0.645638 (Simulation time: 1 hr 47 min 39 sec) 
Heartbeat CPU 0 instructions: 36000000 cycles: 45876774 heartbeat IPC: 0.737523 cumulative IPC: 0.648746 (Simulation time: 1 hr 50 min 43 sec) 
Heartbeat CPU 0 instructions: 37000000 cycles: 47206270 heartbeat IPC: 0.752165 cumulative IPC: 0.652067 (Simulation time: 1 hr 53 min 53 sec) 
Heartbeat CPU 0 instructions: 38000001 cycles: 48535808 heartbeat IPC: 0.752142 cumulative IPC: 0.65518 (Simulation time: 1 hr 57 min 18 sec) 
Heartbeat CPU 0 instructions: 39000000 cycles: 49865197 heartbeat IPC: 0.752225 cumulative IPC: 0.658108 (Simulation time: 2 hr 0 min 50 sec) 
Heartbeat CPU 0 instructions: 40000000 cycles: 51194737 heartbeat IPC: 0.75214 cumulative IPC: 0.660862 (Simulation time: 2 hr 4 min 28 sec) 
Heartbeat CPU 0 instructions: 41000000 cycles: 52460724 heartbeat IPC: 0.789898 cumulative IPC: 0.664363 (Simulation time: 2 hr 7 min 27 sec) 
Heartbeat CPU 0 instructions: 42000000 cycles: 53790205 heartbeat IPC: 0.752173 cumulative IPC: 0.666796 (Simulation time: 2 hr 10 min 33 sec) 
Heartbeat CPU 0 instructions: 43000002 cycles: 55119874 heartbeat IPC: 0.752068 cumulative IPC: 0.669095 (Simulation time: 2 hr 13 min 44 sec) 
Heartbeat CPU 0 instructions: 44000000 cycles: 56449375 heartbeat IPC: 0.75216 cumulative IPC: 0.671275 (Simulation time: 2 hr 17 min 5 sec) 
Heartbeat CPU 0 instructions: 45000001 cycles: 57778700 heartbeat IPC: 0.752262 cumulative IPC: 0.673346 (Simulation time: 2 hr 20 min 29 sec) 
Heartbeat CPU 0 instructions: 46000003 cycles: 59167399 heartbeat IPC: 0.7201 cumulative IPC: 0.674563 (Simulation time: 2 hr 23 min 36 sec) 
Heartbeat CPU 0 instructions: 47000001 cycles: 60289831 heartbeat IPC: 0.890921 cumulative IPC: 0.679019 (Simulation time: 2 hr 26 min 19 sec) 
Heartbeat CPU 0 instructions: 48000000 cycles: 61656786 heartbeat IPC: 0.731552 cumulative IPC: 0.680305 (Simulation time: 2 hr 28 min 55 sec) 
Heartbeat CPU 0 instructions: 49000003 cycles: 71291409 heartbeat IPC: 0.103793 cumulative IPC: 0.595493 (Simulation time: 2 hr 34 min 12 sec) 
Heartbeat CPU 0 instructions: 50000001 cycles: 73093727 heartbeat IPC: 0.55484 cumulative IPC: 0.594405 (Simulation time: 2 hr 37 min 30 sec) 
Heartbeat CPU 0 instructions: 51000001 cycles: 74683757 heartbeat IPC: 0.628919 cumulative IPC: 0.595201 (Simulation time: 2 hr 40 min 43 sec) 
Heartbeat CPU 0 instructions: 52000000 cycles: 76301217 heartbeat IPC: 0.618253 cumulative IPC: 0.59573 (Simulation time: 2 hr 44 min 2 sec) 
Heartbeat CPU 0 instructions: 53000001 cycles: 77909606 heartbeat IPC: 0.621741 cumulative IPC: 0.59631 (Simulation time: 2 hr 47 min 9 sec) 
Heartbeat CPU 0 instructions: 54000000 cycles: 79507068 heartbeat IPC: 0.625992 cumulative IPC: 0.596954 (Simulation time: 2 hr 50 min 26 sec) 
Heartbeat CPU 0 instructions: 55000003 cycles: 81092377 heartbeat IPC: 0.630794 cumulative IPC: 0.597666 (Simulation time: 2 hr 53 min 32 sec) 
Heartbeat CPU 0 instructions: 56000000 cycles: 82690603 heartbeat IPC: 0.625692 cumulative IPC: 0.598249 (Simulation time: 2 hr 56 min 53 sec) 
Heartbeat CPU 0 instructions: 57000003 cycles: 84319273 heartbeat IPC: 0.614 cumulative IPC: 0.598575 (Simulation time: 3 hr 0 min 11 sec) 
Heartbeat CPU 0 instructions: 58000002 cycles: 85911959 heartbeat IPC: 0.62787 cumulative IPC: 0.599158 (Simulation time: 3 hr 3 min 20 sec) 
Heartbeat CPU 0 instructions: 59000001 cycles: 87515564 heartbeat IPC: 0.623594 cumulative IPC: 0.599637 (Simulation time: 3 hr 6 min 23 sec) 
Heartbeat CPU 0 instructions: 60000000 cycles: 89133770 heartbeat IPC: 0.617968 cumulative IPC: 0.599993 (Simulation time: 3 hr 9 min 50 sec) 
Heartbeat CPU 0 instructions: 61000000 cycles: 90716975 heartbeat IPC: 0.63163 cumulative IPC: 0.600583 (Simulation time: 3 hr 12 min 53 sec) 
Heartbeat CPU 0 instructions: 62000003 cycles: 92297356 heartbeat IPC: 0.632761 cumulative IPC: 0.601171 (Simulation time: 3 hr 15 min 58 sec) 
Heartbeat CPU 0 instructions: 63000000 cycles: 93889724 heartbeat IPC: 0.627994 cumulative IPC: 0.601656 (Simulation time: 3 hr 19 min 12 sec) 
Heartbeat CPU 0 instructions: 64000000 cycles: 95498451 heartbeat IPC: 0.62161 cumulative IPC: 0.602014 (Simulation time: 3 hr 22 min 19 sec) 
Heartbeat CPU 0 instructions: 65000003 cycles: 97108522 heartbeat IPC: 0.621092 cumulative IPC: 0.60235 (Simulation time: 3 hr 25 min 23 sec) 
Heartbeat CPU 0 instructions: 66000001 cycles: 98724355 heartbeat IPC: 0.618875 cumulative IPC: 0.602637 (Simulation time: 3 hr 28 min 45 sec) 
Heartbeat CPU 0 instructions: 67000000 cycles: 100314445 heartbeat IPC: 0.628895 cumulative IPC: 0.603079 (Simulation time: 3 hr 31 min 52 sec) 
Heartbeat CPU 0 instructions: 68000000 cycles: 101917720 heartbeat IPC: 0.623723 cumulative IPC: 0.603423 (Simulation time: 3 hr 34 min 58 sec) 
Heartbeat CPU 0 instructions: 69000000 cycles: 103522307 heartbeat IPC: 0.623213 cumulative IPC: 0.603748 (Simulation time: 3 hr 38 min 21 sec) 
Heartbeat CPU 0 instructions: 70000003 cycles: 105083660 heartbeat IPC: 0.640472 cumulative IPC: 0.604326 (Simulation time: 3 hr 41 min 26 sec) 
Heartbeat CPU 0 instructions: 71000003 cycles: 106693843 heartbeat IPC: 0.621047 cumulative IPC: 0.604593 (Simulation time: 3 hr 44 min 29 sec) 
Heartbeat CPU 0 instructions: 72000000 cycles: 108278323 heartbeat IPC: 0.63112 cumulative IPC: 0.605003 (Simulation time: 3 hr 47 min 37 sec) 
Heartbeat CPU 0 instructions: 73000002 cycles: 109886330 heartbeat IPC: 0.621889 cumulative IPC: 0.605264 (Simulation time: 3 hr 50 min 42 sec) 
Heartbeat CPU 0 instructions: 74000000 cycles: 111500072 heartbeat IPC: 0.619677 cumulative IPC: 0.605484 (Simulation time: 3 hr 53 min 44 sec) 
Heartbeat CPU 0 instructions: 75000000 cycles: 113103821 heartbeat IPC: 0.623539 cumulative IPC: 0.605754 (Simulation time: 3 hr 57 min 5 sec) 
Heartbeat CPU 0 instructions: 76000000 cycles: 114677083 heartbeat IPC: 0.635622 cumulative IPC: 0.606185 (Simulation time: 4 hr 0 min 7 sec) 
Heartbeat CPU 0 instructions: 77000003 cycles: 116301184 heartbeat IPC: 0.615727 cumulative IPC: 0.606326 (Simulation time: 4 hr 3 min 19 sec) 
Heartbeat CPU 0 instructions: 78000001 cycles: 117889780 heartbeat IPC: 0.629485 cumulative IPC: 0.606654 (Simulation time: 4 hr 6 min 20 sec) 
Heartbeat CPU 0 instructions: 79000001 cycles: 119454810 heartbeat IPC: 0.638965 cumulative IPC: 0.607099 (Simulation time: 4 hr 9 min 26 sec) 
Heartbeat CPU 0 instructions: 80000000 cycles: 121037582 heartbeat IPC: 0.631802 cumulative IPC: 0.607438 (Simulation time: 4 hr 12 min 22 sec) 
Heartbeat CPU 0 instructions: 81000001 cycles: 122631200 heartbeat IPC: 0.627504 cumulative IPC: 0.607712 (Simulation time: 4 hr 15 min 8 sec) 
Heartbeat CPU 0 instructions: 82000000 cycles: 124216918 heartbeat IPC: 0.630629 cumulative IPC: 0.608019 (Simulation time: 4 hr 17 min 53 sec) 
Heartbeat CPU 0 instructions: 83000001 cycles: 125801554 heartbeat IPC: 0.63106 cumulative IPC: 0.608323 (Simulation time: 4 hr 20 min 44 sec) 
Heartbeat CPU 0 instructions: 84000000 cycles: 127375152 heartbeat IPC: 0.635486 cumulative IPC: 0.608674 (Simulation time: 4 hr 23 min 16 sec) 
Heartbeat CPU 0 instructions: 85000001 cycles: 128977218 heartbeat IPC: 0.624195 cumulative IPC: 0.608876 (Simulation time: 4 hr 25 min 45 sec) 
Heartbeat CPU 0 instructions: 86000000 cycles: 130575496 heartbeat IPC: 0.625673 cumulative IPC: 0.609091 (Simulation time: 4 hr 27 min 59 sec) 
Heartbeat CPU 0 instructions: 87000002 cycles: 132168571 heartbeat IPC: 0.627718 cumulative IPC: 0.609326 (Simulation time: 4 hr 29 min 59 sec) 
Heartbeat CPU 0 instructions: 88000000 cycles: 133786736 heartbeat IPC: 0.617983 cumulative IPC: 0.609436 (Simulation time: 4 hr 31 min 58 sec) 
Heartbeat CPU 0 instructions: 89000003 cycles: 135407263 heartbeat IPC: 0.617085 cumulative IPC: 0.609531 (Simulation time: 4 hr 33 min 52 sec) 
Heartbeat CPU 0 instructions: 90000000 cycles: 137035099 heartbeat IPC: 0.614311 cumulative IPC: 0.609591 (Simulation time: 4 hr 35 min 39 sec) 
Heartbeat CPU 0 instructions: 91000003 cycles: 138655480 heartbeat IPC: 0.617141 cumulative IPC: 0.609683 (Simulation time: 4 hr 37 min 24 sec) 
Heartbeat CPU 0 instructions: 92000000 cycles: 140248345 heartbeat IPC: 0.627798 cumulative IPC: 0.609897 (Simulation time: 4 hr 39 min 6 sec) 
Heartbeat CPU 0 instructions: 93000001 cycles: 141859375 heartbeat IPC: 0.620722 cumulative IPC: 0.610026 (Simulation time: 4 hr 40 min 49 sec) 
Heartbeat CPU 0 instructions: 94000000 cycles: 143431729 heartbeat IPC: 0.635988 cumulative IPC: 0.610322 (Simulation time: 4 hr 42 min 21 sec) 
Heartbeat CPU 0 instructions: 95000001 cycles: 144997689 heartbeat IPC: 0.638587 cumulative IPC: 0.61064 (Simulation time: 4 hr 43 min 47 sec) 
Heartbeat CPU 0 instructions: 96000000 cycles: 146596572 heartbeat IPC: 0.625436 cumulative IPC: 0.610808 (Simulation time: 4 hr 45 min 1 sec) 
Heartbeat CPU 0 instructions: 97000002 cycles: 148195858 heartbeat IPC: 0.62528 cumulative IPC: 0.610971 (Simulation time: 4 hr 46 min 14 sec) 
Heartbeat CPU 0 instructions: 98000000 cycles: 149811571 heartbeat IPC: 0.618921 cumulative IPC: 0.61106 (Simulation time: 4 hr 47 min 20 sec) 
Heartbeat CPU 0 instructions: 99000000 cycles: 151375499 heartbeat IPC: 0.639416 cumulative IPC: 0.611364 (Simulation time: 4 hr 48 min 24 sec) 
Heartbeat CPU 0 instructions: 100000000 cycles: 152989466 heartbeat IPC: 0.619591 cumulative IPC: 0.611455 (Simulation time: 4 hr 49 min 26 sec) 
Heartbeat CPU 0 instructions: 101000001 cycles: 154606956 heartbeat IPC: 0.618242 cumulative IPC: 0.611528 (Simulation time: 4 hr 50 min 26 sec) 
Heartbeat CPU 0 instructions: 102000000 cycles: 156218860 heartbeat IPC: 0.620384 cumulative IPC: 0.611623 (Simulation time: 4 hr 51 min 16 sec) 
Heartbeat CPU 0 instructions: 103000000 cycles: 157804005 heartbeat IPC: 0.630857 cumulative IPC: 0.611824 (Simulation time: 4 hr 52 min 12 sec) 
Heartbeat CPU 0 instructions: 104000000 cycles: 159404588 heartbeat IPC: 0.624772 cumulative IPC: 0.611959 (Simulation time: 4 hr 52 min 56 sec) 
Heartbeat CPU 0 instructions: 105000000 cycles: 161018444 heartbeat IPC: 0.619634 cumulative IPC: 0.612039 (Simulation time: 4 hr 53 min 38 sec) 
Heartbeat CPU 0 instructions: 106000001 cycles: 162623916 heartbeat IPC: 0.62287 cumulative IPC: 0.61215 (Simulation time: 4 hr 54 min 15 sec) 
Heartbeat CPU 0 instructions: 107000001 cycles: 164233586 heartbeat IPC: 0.621245 cumulative IPC: 0.612242 (Simulation time: 4 hr 54 min 51 sec) 
Heartbeat CPU 0 instructions: 108000000 cycles: 165844061 heartbeat IPC: 0.620934 cumulative IPC: 0.612329 (Simulation time: 4 hr 55 min 25 sec) 
Heartbeat CPU 0 instructions: 109000000 cycles: 167410007 heartbeat IPC: 0.638592 cumulative IPC: 0.612584 (Simulation time: 4 hr 55 min 55 sec) 
Heartbeat CPU 0 instructions: 110000002 cycles: 168996806 heartbeat IPC: 0.630201 cumulative IPC: 0.612755 (Simulation time: 4 hr 56 min 25 sec) 
Finished CPU 0 instructions: 100000001 cycles: 163197318 cummulative IPC: 0.612755 (Simulation time: 4 hr 56 min 25 sec) 

ChampSim completed all CPUs

Region of Interest Statistics

CPU 0 cummulative IPC: 0.612755 instructions: 100000001 cycles: 163197318
LLC TOTAL     ACCESS:    4812138  HIT:    1007800  MISS:    3804338
LLC LOAD      ACCESS:     461780  HIT:      40655  MISS:     421125
LLC RFO       ACCESS:     126472  HIT:     116288  MISS:      10184
LLC PREFETCH  ACCESS:    2859595  HIT:     283816  MISS:    2575779
LLC WRITEBACK ACCESS:    1364291  HIT:     567041  MISS:     797250
Insertion Distribution: 
	LOAD 31921 0 162284 236534 
	RFO 907 0 9279 0 
	PREF 0 4856 855359 1950761 
	WRITEBACK 0 0 0 882192 
Total Prefetch Downgrades: 8361
