
*** ChampSim Multicore Out-of-Order Simulator ***

Warmup Instructions: 10000000
Simulation Instructions: 100000000
Configuration: 2
Number of CPUs: 1
LLC sets: 2048
LLC ways: 16
Off-chip DRAM Channels: 1 Width: 64-bit Data Rate: 1600 MT/s

CPU 0 runs /datasets/cs240c-wi22-a00-public/data/Assignment2-gz/omnetpp_17B.trace.gz
CPU 0 L1D next line prefetcher
CPU 0 L2C IP-based stride prefetcher
Initialize SRRIP state
Heartbeat CPU 0 instructions: 1000000 cycles: 559584 heartbeat IPC: 1.78704 cumulative IPC: 1.78704 (Simulation time: 0 hr 2 min 34 sec) 
Heartbeat CPU 0 instructions: 2000002 cycles: 1133802 heartbeat IPC: 1.7415 cumulative IPC: 1.76398 (Simulation time: 0 hr 4 min 59 sec) 
Heartbeat CPU 0 instructions: 3000001 cycles: 1769219 heartbeat IPC: 1.57377 cumulative IPC: 1.69566 (Simulation time: 0 hr 7 min 20 sec) 
Heartbeat CPU 0 instructions: 4000000 cycles: 2334184 heartbeat IPC: 1.77002 cumulative IPC: 1.71366 (Simulation time: 0 hr 10 min 5 sec) 
Heartbeat CPU 0 instructions: 5000002 cycles: 2893231 heartbeat IPC: 1.78876 cumulative IPC: 1.72817 (Simulation time: 0 hr 12 min 38 sec) 
Heartbeat CPU 0 instructions: 6000000 cycles: 3471741 heartbeat IPC: 1.72858 cumulative IPC: 1.72824 (Simulation time: 0 hr 15 min 1 sec) 
Heartbeat CPU 0 instructions: 7000000 cycles: 4036126 heartbeat IPC: 1.77184 cumulative IPC: 1.73434 (Simulation time: 0 hr 17 min 29 sec) 
Heartbeat CPU 0 instructions: 8000000 cycles: 4697860 heartbeat IPC: 1.51118 cumulative IPC: 1.7029 (Simulation time: 0 hr 19 min 49 sec) 
Heartbeat CPU 0 instructions: 9000000 cycles: 5359665 heartbeat IPC: 1.51102 cumulative IPC: 1.67921 (Simulation time: 0 hr 22 min 9 sec) 
Heartbeat CPU 0 instructions: 10000001 cycles: 6021234 heartbeat IPC: 1.51156 cumulative IPC: 1.66079 (Simulation time: 0 hr 24 min 33 sec) 

Warmup complete CPU 0 instructions: 10000001 cycles: 6021234 (Simulation time: 0 hr 24 min 33 sec) 

Heartbeat CPU 0 instructions: 11000001 cycles: 7066050 heartbeat IPC: 0.957106 cumulative IPC: 0.957106 (Simulation time: 0 hr 26 min 52 sec) 
Heartbeat CPU 0 instructions: 12000000 cycles: 8110593 heartbeat IPC: 0.957355 cumulative IPC: 0.957231 (Simulation time: 0 hr 29 min 18 sec) 
Heartbeat CPU 0 instructions: 13000000 cycles: 9180485 heartbeat IPC: 0.934674 cumulative IPC: 0.949592 (Simulation time: 0 hr 31 min 38 sec) 
Heartbeat CPU 0 instructions: 14000001 cycles: 10224736 heartbeat IPC: 0.957625 cumulative IPC: 0.951587 (Simulation time: 0 hr 33 min 58 sec) 
Heartbeat CPU 0 instructions: 15000000 cycles: 11268944 heartbeat IPC: 0.957663 cumulative IPC: 0.952796 (Simulation time: 0 hr 36 min 8 sec) 
Heartbeat CPU 0 instructions: 16000000 cycles: 12312981 heartbeat IPC: 0.95782 cumulative IPC: 0.95363 (Simulation time: 0 hr 38 min 35 sec) 
Heartbeat CPU 0 instructions: 17000000 cycles: 13358518 heartbeat IPC: 0.956446 cumulative IPC: 0.954031 (Simulation time: 0 hr 40 min 59 sec) 
Heartbeat CPU 0 instructions: 18000001 cycles: 14399842 heartbeat IPC: 0.960317 cumulative IPC: 0.954813 (Simulation time: 0 hr 43 min 16 sec) 
Heartbeat CPU 0 instructions: 19000002 cycles: 15434652 heartbeat IPC: 0.966362 cumulative IPC: 0.956082 (Simulation time: 0 hr 45 min 34 sec) 
Heartbeat CPU 0 instructions: 20000000 cycles: 18741005 heartbeat IPC: 0.302447 cumulative IPC: 0.786178 (Simulation time: 0 hr 48 min 24 sec) 
Heartbeat CPU 0 instructions: 21000000 cycles: 21196996 heartbeat IPC: 0.407168 cumulative IPC: 0.72484 (Simulation time: 0 hr 51 min 5 sec) 
Heartbeat CPU 0 instructions: 22000002 cycles: 23046604 heartbeat IPC: 0.540656 cumulative IPC: 0.704831 (Simulation time: 0 hr 53 min 39 sec) 
Heartbeat CPU 0 instructions: 23000000 cycles: 26312465 heartbeat IPC: 0.306197 cumulative IPC: 0.640671 (Simulation time: 0 hr 56 min 33 sec) 
Heartbeat CPU 0 instructions: 24000000 cycles: 29581309 heartbeat IPC: 0.305919 cumulative IPC: 0.594226 (Simulation time: 0 hr 59 min 21 sec) 
Heartbeat CPU 0 instructions: 25000001 cycles: 32187088 heartbeat IPC: 0.383763 cumulative IPC: 0.573266 (Simulation time: 1 hr 1 min 51 sec) 
Heartbeat CPU 0 instructions: 26000001 cycles: 33872264 heartbeat IPC: 0.59341 cumulative IPC: 0.574485 (Simulation time: 1 hr 4 min 9 sec) 
Heartbeat CPU 0 instructions: 27000000 cycles: 37139172 heartbeat IPC: 0.3061 cumulative IPC: 0.546309 (Simulation time: 1 hr 6 min 39 sec) 
Heartbeat CPU 0 instructions: 28000000 cycles: 40408476 heartbeat IPC: 0.305876 cumulative IPC: 0.52345 (Simulation time: 1 hr 9 min 16 sec) 
Heartbeat CPU 0 instructions: 29000000 cycles: 43203261 heartbeat IPC: 0.357809 cumulative IPC: 0.511 (Simulation time: 1 hr 11 min 46 sec) 
Heartbeat CPU 0 instructions: 30000000 cycles: 44706510 heartbeat IPC: 0.665226 cumulative IPC: 0.516993 (Simulation time: 1 hr 13 min 51 sec) 
Heartbeat CPU 0 instructions: 31000000 cycles: 47961830 heartbeat IPC: 0.307189 cumulative IPC: 0.500708 (Simulation time: 1 hr 16 min 17 sec) 
Heartbeat CPU 0 instructions: 32000000 cycles: 51220809 heartbeat IPC: 0.306845 cumulative IPC: 0.48673 (Simulation time: 1 hr 18 min 48 sec) 
Heartbeat CPU 0 instructions: 33000001 cycles: 54197898 heartbeat IPC: 0.335899 cumulative IPC: 0.47741 (Simulation time: 1 hr 21 min 16 sec) 
Heartbeat CPU 0 instructions: 34000000 cycles: 55505075 heartbeat IPC: 0.765007 cumulative IPC: 0.485007 (Simulation time: 1 hr 23 min 30 sec) 
Heartbeat CPU 0 instructions: 35000003 cycles: 58752272 heartbeat IPC: 0.307959 cumulative IPC: 0.474104 (Simulation time: 1 hr 26 min 6 sec) 
Heartbeat CPU 0 instructions: 36000000 cycles: 62041024 heartbeat IPC: 0.304066 cumulative IPC: 0.464122 (Simulation time: 1 hr 28 min 24 sec) 
Heartbeat CPU 0 instructions: 37000001 cycles: 64915127 heartbeat IPC: 0.347935 cumulative IPC: 0.458452 (Simulation time: 1 hr 30 min 46 sec) 
Heartbeat CPU 0 instructions: 38000000 cycles: 66334832 heartbeat IPC: 0.704371 cumulative IPC: 0.46424 (Simulation time: 1 hr 32 min 50 sec) 
Heartbeat CPU 0 instructions: 39000000 cycles: 69594912 heartbeat IPC: 0.306741 cumulative IPC: 0.456164 (Simulation time: 1 hr 35 min 12 sec) 
Heartbeat CPU 0 instructions: 40000000 cycles: 72855841 heartbeat IPC: 0.306661 cumulative IPC: 0.448869 (Simulation time: 1 hr 37 min 31 sec) 
Heartbeat CPU 0 instructions: 41000002 cycles: 75624987 heartbeat IPC: 0.361123 cumulative IPC: 0.445378 (Simulation time: 1 hr 39 min 49 sec) 
Heartbeat CPU 0 instructions: 42000000 cycles: 77143245 heartbeat IPC: 0.658648 cumulative IPC: 0.449931 (Simulation time: 1 hr 41 min 50 sec) 
Heartbeat CPU 0 instructions: 43000003 cycles: 82516335 heartbeat IPC: 0.186113 cumulative IPC: 0.4314 (Simulation time: 1 hr 44 min 50 sec) 
Heartbeat CPU 0 instructions: 44000000 cycles: 83563069 heartbeat IPC: 0.95535 cumulative IPC: 0.438473 (Simulation time: 1 hr 46 min 44 sec) 
Heartbeat CPU 0 instructions: 45000003 cycles: 84605849 heartbeat IPC: 0.958978 cumulative IPC: 0.44538 (Simulation time: 1 hr 48 min 45 sec) 
Heartbeat CPU 0 instructions: 46000001 cycles: 85648916 heartbeat IPC: 0.958709 cumulative IPC: 0.452104 (Simulation time: 1 hr 50 min 47 sec) 
Heartbeat CPU 0 instructions: 47000001 cycles: 86693451 heartbeat IPC: 0.957364 cumulative IPC: 0.458646 (Simulation time: 1 hr 52 min 44 sec) 
Heartbeat CPU 0 instructions: 48000000 cycles: 87736629 heartbeat IPC: 0.958608 cumulative IPC: 0.465029 (Simulation time: 1 hr 54 min 49 sec) 
Heartbeat CPU 0 instructions: 49000000 cycles: 88778435 heartbeat IPC: 0.959872 cumulative IPC: 0.471258 (Simulation time: 1 hr 56 min 46 sec) 
Heartbeat CPU 0 instructions: 50000000 cycles: 89821223 heartbeat IPC: 0.958968 cumulative IPC: 0.477327 (Simulation time: 1 hr 58 min 48 sec) 
Heartbeat CPU 0 instructions: 51000002 cycles: 90864111 heartbeat IPC: 0.958878 cumulative IPC: 0.483246 (Simulation time: 2 hr 0 min 44 sec) 
Heartbeat CPU 0 instructions: 52000000 cycles: 91908350 heartbeat IPC: 0.957633 cumulative IPC: 0.489014 (Simulation time: 2 hr 2 min 41 sec) 
Heartbeat CPU 0 instructions: 53000001 cycles: 92951137 heartbeat IPC: 0.95897 cumulative IPC: 0.494651 (Simulation time: 2 hr 4 min 41 sec) 
Heartbeat CPU 0 instructions: 54000002 cycles: 94019262 heartbeat IPC: 0.936221 cumulative IPC: 0.500011 (Simulation time: 2 hr 6 min 36 sec) 
Heartbeat CPU 0 instructions: 55000003 cycles: 95059667 heartbeat IPC: 0.961165 cumulative IPC: 0.5054 (Simulation time: 2 hr 8 min 34 sec) 
Heartbeat CPU 0 instructions: 56000000 cycles: 97313848 heartbeat IPC: 0.443619 cumulative IPC: 0.503874 (Simulation time: 2 hr 10 min 49 sec) 
Heartbeat CPU 0 instructions: 57000003 cycles: 99361760 heartbeat IPC: 0.488304 cumulative IPC: 0.503533 (Simulation time: 2 hr 12 min 51 sec) 
Heartbeat CPU 0 instructions: 58000000 cycles: 102630720 heartbeat IPC: 0.305907 cumulative IPC: 0.496846 (Simulation time: 2 hr 15 min 14 sec) 
Heartbeat CPU 0 instructions: 59000003 cycles: 105898917 heartbeat IPC: 0.30598 cumulative IPC: 0.4906 (Simulation time: 2 hr 17 min 48 sec) 
Heartbeat CPU 0 instructions: 60000000 cycles: 108292984 heartbeat IPC: 0.417698 cumulative IPC: 0.488894 (Simulation time: 2 hr 20 min 3 sec) 
Heartbeat CPU 0 instructions: 61000001 cycles: 110180619 heartbeat IPC: 0.529764 cumulative IPC: 0.489634 (Simulation time: 2 hr 22 min 24 sec) 
Heartbeat CPU 0 instructions: 62000001 cycles: 113430867 heartbeat IPC: 0.307669 cumulative IPC: 0.484128 (Simulation time: 2 hr 24 min 59 sec) 
Heartbeat CPU 0 instructions: 63000000 cycles: 116692510 heartbeat IPC: 0.306594 cumulative IPC: 0.478896 (Simulation time: 2 hr 27 min 25 sec) 
Heartbeat CPU 0 instructions: 64000000 cycles: 119253318 heartbeat IPC: 0.390502 cumulative IPC: 0.476897 (Simulation time: 2 hr 29 min 36 sec) 
Heartbeat CPU 0 instructions: 65000000 cycles: 120971268 heartbeat IPC: 0.582089 cumulative IPC: 0.478469 (Simulation time: 2 hr 31 min 37 sec) 
Heartbeat CPU 0 instructions: 66000000 cycles: 124230049 heartbeat IPC: 0.306863 cumulative IPC: 0.473738 (Simulation time: 2 hr 34 min 12 sec) 
Heartbeat CPU 0 instructions: 67000001 cycles: 127498855 heartbeat IPC: 0.305922 cumulative IPC: 0.469222 (Simulation time: 2 hr 36 min 28 sec) 
Heartbeat CPU 0 instructions: 68000000 cycles: 130254356 heartbeat IPC: 0.36291 cumulative IPC: 0.466864 (Simulation time: 2 hr 38 min 40 sec) 
Heartbeat CPU 0 instructions: 69000001 cycles: 131789194 heartbeat IPC: 0.651535 cumulative IPC: 0.469118 (Simulation time: 2 hr 40 min 48 sec) 
Heartbeat CPU 0 instructions: 70000001 cycles: 135031040 heartbeat IPC: 0.308466 cumulative IPC: 0.465081 (Simulation time: 2 hr 43 min 7 sec) 
Heartbeat CPU 0 instructions: 71000001 cycles: 138292265 heartbeat IPC: 0.306633 cumulative IPC: 0.461174 (Simulation time: 2 hr 45 min 26 sec) 
Heartbeat CPU 0 instructions: 72000000 cycles: 141053447 heartbeat IPC: 0.362163 cumulative IPC: 0.45915 (Simulation time: 2 hr 47 min 44 sec) 
Heartbeat CPU 0 instructions: 73000000 cycles: 142594682 heartbeat IPC: 0.64883 cumulative IPC: 0.46129 (Simulation time: 2 hr 49 min 46 sec) 
Heartbeat CPU 0 instructions: 74000003 cycles: 145860996 heartbeat IPC: 0.306156 cumulative IPC: 0.457667 (Simulation time: 2 hr 52 min 7 sec) 
Heartbeat CPU 0 instructions: 75000001 cycles: 149127065 heartbeat IPC: 0.306178 cumulative IPC: 0.454209 (Simulation time: 2 hr 54 min 35 sec) 
Heartbeat CPU 0 instructions: 76000000 cycles: 151783550 heartbeat IPC: 0.376437 cumulative IPC: 0.452792 (Simulation time: 2 hr 56 min 56 sec) 
Heartbeat CPU 0 instructions: 77000001 cycles: 153425052 heartbeat IPC: 0.609199 cumulative IPC: 0.454534 (Simulation time: 2 hr 58 min 57 sec) 
Heartbeat CPU 0 instructions: 78000000 cycles: 156680772 heartbeat IPC: 0.307151 cumulative IPC: 0.451349 (Simulation time: 3 hr 1 min 35 sec) 
Heartbeat CPU 0 instructions: 79000000 cycles: 160112339 heartbeat IPC: 0.291412 cumulative IPC: 0.447787 (Simulation time: 3 hr 4 min 0 sec) 
Heartbeat CPU 0 instructions: 80000000 cycles: 161949523 heartbeat IPC: 0.544311 cumulative IPC: 0.448924 (Simulation time: 3 hr 6 min 13 sec) 
Heartbeat CPU 0 instructions: 81000001 cycles: 164397733 heartbeat IPC: 0.408462 cumulative IPC: 0.448299 (Simulation time: 3 hr 8 min 24 sec) 
Heartbeat CPU 0 instructions: 82000000 cycles: 167662021 heartbeat IPC: 0.306345 cumulative IPC: 0.445432 (Simulation time: 3 hr 10 min 58 sec) 
Heartbeat CPU 0 instructions: 83000000 cycles: 170925488 heartbeat IPC: 0.306423 cumulative IPC: 0.442681 (Simulation time: 3 hr 13 min 20 sec) 
Heartbeat CPU 0 instructions: 84000000 cycles: 172730929 heartbeat IPC: 0.553881 cumulative IPC: 0.443885 (Simulation time: 3 hr 15 min 32 sec) 
Heartbeat CPU 0 instructions: 85000003 cycles: 175202506 heartbeat IPC: 0.404601 cumulative IPC: 0.443311 (Simulation time: 3 hr 17 min 41 sec) 
Heartbeat CPU 0 instructions: 86000001 cycles: 178468971 heartbeat IPC: 0.306141 cumulative IPC: 0.440713 (Simulation time: 3 hr 20 min 3 sec) 
Heartbeat CPU 0 instructions: 87000000 cycles: 181730101 heartbeat IPC: 0.306642 cumulative IPC: 0.438225 (Simulation time: 3 hr 22 min 32 sec) 
Heartbeat CPU 0 instructions: 88000000 cycles: 183389313 heartbeat IPC: 0.602696 cumulative IPC: 0.439763 (Simulation time: 3 hr 24 min 49 sec) 
Heartbeat CPU 0 instructions: 89000000 cycles: 188123468 heartbeat IPC: 0.211231 cumulative IPC: 0.433822 (Simulation time: 3 hr 27 min 32 sec) 
Heartbeat CPU 0 instructions: 90000002 cycles: 189166912 heartbeat IPC: 0.958367 cumulative IPC: 0.436811 (Simulation time: 3 hr 29 min 34 sec) 
Heartbeat CPU 0 instructions: 91000001 cycles: 190211305 heartbeat IPC: 0.957493 cumulative IPC: 0.439763 (Simulation time: 3 hr 31 min 27 sec) 
Heartbeat CPU 0 instructions: 92000000 cycles: 191254951 heartbeat IPC: 0.958178 cumulative IPC: 0.442684 (Simulation time: 3 hr 33 min 31 sec) 
Heartbeat CPU 0 instructions: 93000002 cycles: 192299291 heartbeat IPC: 0.957545 cumulative IPC: 0.44557 (Simulation time: 3 hr 35 min 24 sec) 
Heartbeat CPU 0 instructions: 94000001 cycles: 193343119 heartbeat IPC: 0.958011 cumulative IPC: 0.448426 (Simulation time: 3 hr 37 min 38 sec) 
Heartbeat CPU 0 instructions: 95000000 cycles: 194387404 heartbeat IPC: 0.957592 cumulative IPC: 0.451249 (Simulation time: 3 hr 39 min 40 sec) 
Heartbeat CPU 0 instructions: 96000000 cycles: 195432199 heartbeat IPC: 0.957126 cumulative IPC: 0.454039 (Simulation time: 3 hr 41 min 44 sec) 
Heartbeat CPU 0 instructions: 97000002 cycles: 196503071 heartbeat IPC: 0.93382 cumulative IPC: 0.456736 (Simulation time: 3 hr 43 min 37 sec) 
Heartbeat CPU 0 instructions: 98000000 cycles: 197548884 heartbeat IPC: 0.956192 cumulative IPC: 0.459464 (Simulation time: 3 hr 45 min 36 sec) 
Heartbeat CPU 0 instructions: 99000003 cycles: 198587311 heartbeat IPC: 0.962998 cumulative IPC: 0.462179 (Simulation time: 3 hr 47 min 24 sec) 
Heartbeat CPU 0 instructions: 100000000 cycles: 199623765 heartbeat IPC: 0.964825 cumulative IPC: 0.46487 (Simulation time: 3 hr 49 min 22 sec) 
Heartbeat CPU 0 instructions: 101000001 cycles: 200664855 heartbeat IPC: 0.960533 cumulative IPC: 0.467521 (Simulation time: 3 hr 51 min 17 sec) 
Heartbeat CPU 0 instructions: 102000001 cycles: 203891168 heartbeat IPC: 0.309951 cumulative IPC: 0.464952 (Simulation time: 3 hr 53 min 43 sec) 
Heartbeat CPU 0 instructions: 103000000 cycles: 205286127 heartbeat IPC: 0.716866 cumulative IPC: 0.466715 (Simulation time: 3 hr 55 min 42 sec) 
Heartbeat CPU 0 instructions: 104000000 cycles: 208234893 heartbeat IPC: 0.339125 cumulative IPC: 0.464855 (Simulation time: 3 hr 58 min 2 sec) 
Heartbeat CPU 0 instructions: 105000000 cycles: 211491115 heartbeat IPC: 0.307104 cumulative IPC: 0.462355 (Simulation time: 4 hr 0 min 21 sec) 
Heartbeat CPU 0 instructions: 106000000 cycles: 214693237 heartbeat IPC: 0.312293 cumulative IPC: 0.460052 (Simulation time: 4 hr 2 min 44 sec) 
Heartbeat CPU 0 instructions: 107000001 cycles: 216240993 heartbeat IPC: 0.646097 cumulative IPC: 0.461422 (Simulation time: 4 hr 4 min 43 sec) 
Heartbeat CPU 0 instructions: 108000000 cycles: 219030499 heartbeat IPC: 0.358486 cumulative IPC: 0.460074 (Simulation time: 4 hr 7 min 1 sec) 
Heartbeat CPU 0 instructions: 109000000 cycles: 222289713 heartbeat IPC: 0.306822 cumulative IPC: 0.457764 (Simulation time: 4 hr 9 min 19 sec) 
Heartbeat CPU 0 instructions: 110000000 cycles: 225530792 heartbeat IPC: 0.308539 cumulative IPC: 0.455561 (Simulation time: 4 hr 11 min 35 sec) 
Finished CPU 0 instructions: 100000003 cycles: 219509563 cummulative IPC: 0.455561 (Simulation time: 4 hr 11 min 35 sec) 

ChampSim completed all CPUs

Region of Interest Statistics

CPU 0 cummulative IPC: 0.455561 instructions: 100000003 cycles: 219509563
LLC TOTAL     ACCESS:    3282676  HIT:    1366856  MISS:    1915820
LLC LOAD      ACCESS:    1558510  HIT:    1214327  MISS:     344183
LLC RFO       ACCESS:       5220  HIT:       2377  MISS:       2843
LLC PREFETCH  ACCESS:    1702098  HIT:     140060  MISS:    1562038
LLC WRITEBACK ACCESS:      16848  HIT:      10092  MISS:       6756
Insertion Distribution: 
	LOAD 7956 0 156003 269936 
	RFO 0 0 1586 1634 
	PREF 0 0 462998 1271198 
	WRITEBACK 0 0 0 7003 
Total Prefetch Downgrades: 559
