
*** ChampSim Multicore Out-of-Order Simulator ***

Warmup Instructions: 10000000
Simulation Instructions: 100000000
Configuration: 2
Number of CPUs: 1
LLC sets: 2048
LLC ways: 16
Off-chip DRAM Channels: 1 Width: 64-bit Data Rate: 1600 MT/s

CPU 0 runs /datasets/cs240c-wi22-a00-public/data/Assignment2-gz/GemsFDTD_712B.trace.gz
CPU 0 L1D next line prefetcher
CPU 0 L2C IP-based stride prefetcher
Initialize SRRIP state
Heartbeat CPU 0 instructions: 1000003 cycles: 634340 heartbeat IPC: 1.57645 cumulative IPC: 1.57645 (Simulation time: 0 hr 2 min 53 sec) 
Heartbeat CPU 0 instructions: 2000000 cycles: 1268253 heartbeat IPC: 1.5775 cumulative IPC: 1.57697 (Simulation time: 0 hr 6 min 1 sec) 
Heartbeat CPU 0 instructions: 3000000 cycles: 1902236 heartbeat IPC: 1.57733 cumulative IPC: 1.57709 (Simulation time: 0 hr 9 min 15 sec) 
Heartbeat CPU 0 instructions: 4000000 cycles: 2535938 heartbeat IPC: 1.57803 cumulative IPC: 1.57733 (Simulation time: 0 hr 12 min 5 sec) 
Heartbeat CPU 0 instructions: 5000003 cycles: 3170091 heartbeat IPC: 1.57691 cumulative IPC: 1.57724 (Simulation time: 0 hr 15 min 24 sec) 
Heartbeat CPU 0 instructions: 6000002 cycles: 3803983 heartbeat IPC: 1.57755 cumulative IPC: 1.57729 (Simulation time: 0 hr 18 min 32 sec) 
Heartbeat CPU 0 instructions: 7000001 cycles: 4438129 heartbeat IPC: 1.57692 cumulative IPC: 1.57724 (Simulation time: 0 hr 21 min 38 sec) 
Heartbeat CPU 0 instructions: 8000000 cycles: 5071965 heartbeat IPC: 1.57769 cumulative IPC: 1.5773 (Simulation time: 0 hr 24 min 27 sec) 
Heartbeat CPU 0 instructions: 9000001 cycles: 5706083 heartbeat IPC: 1.577 cumulative IPC: 1.57726 (Simulation time: 0 hr 27 min 6 sec) 
Heartbeat CPU 0 instructions: 10000002 cycles: 6339853 heartbeat IPC: 1.57786 cumulative IPC: 1.57732 (Simulation time: 0 hr 29 min 40 sec) 

Warmup complete CPU 0 instructions: 10000002 cycles: 6339853 (Simulation time: 0 hr 29 min 40 sec) 

Heartbeat CPU 0 instructions: 11000001 cycles: 7950457 heartbeat IPC: 0.620884 cumulative IPC: 0.620884 (Simulation time: 0 hr 32 min 45 sec) 
Heartbeat CPU 0 instructions: 12000000 cycles: 9562370 heartbeat IPC: 0.62038 cumulative IPC: 0.620632 (Simulation time: 0 hr 35 min 41 sec) 
Heartbeat CPU 0 instructions: 13000000 cycles: 11163537 heartbeat IPC: 0.624545 cumulative IPC: 0.621931 (Simulation time: 0 hr 38 min 35 sec) 
Heartbeat CPU 0 instructions: 14000001 cycles: 12753092 heartbeat IPC: 0.629108 cumulative IPC: 0.62371 (Simulation time: 0 hr 41 min 42 sec) 
Heartbeat CPU 0 instructions: 15000000 cycles: 14332129 heartbeat IPC: 0.633297 cumulative IPC: 0.625604 (Simulation time: 0 hr 44 min 42 sec) 
Heartbeat CPU 0 instructions: 16000000 cycles: 15948864 heartbeat IPC: 0.618531 cumulative IPC: 0.624414 (Simulation time: 0 hr 47 min 43 sec) 
Heartbeat CPU 0 instructions: 17000001 cycles: 17547096 heartbeat IPC: 0.625692 cumulative IPC: 0.624596 (Simulation time: 0 hr 50 min 55 sec) 
Heartbeat CPU 0 instructions: 18000001 cycles: 19163753 heartbeat IPC: 0.61856 cumulative IPC: 0.623835 (Simulation time: 0 hr 54 min 28 sec) 
Heartbeat CPU 0 instructions: 19000003 cycles: 20753511 heartbeat IPC: 0.629028 cumulative IPC: 0.624408 (Simulation time: 0 hr 57 min 57 sec) 
Heartbeat CPU 0 instructions: 20000000 cycles: 22332861 heartbeat IPC: 0.63317 cumulative IPC: 0.625273 (Simulation time: 1 hr 1 min 17 sec) 
Heartbeat CPU 0 instructions: 21000002 cycles: 23929319 heartbeat IPC: 0.626388 cumulative IPC: 0.625374 (Simulation time: 1 hr 4 min 39 sec) 
Heartbeat CPU 0 instructions: 22000001 cycles: 25542148 heartbeat IPC: 0.620028 cumulative IPC: 0.624925 (Simulation time: 1 hr 8 min 3 sec) 
Heartbeat CPU 0 instructions: 23000003 cycles: 27134002 heartbeat IPC: 0.6282 cumulative IPC: 0.625176 (Simulation time: 1 hr 11 min 23 sec) 
Heartbeat CPU 0 instructions: 24000000 cycles: 28760918 heartbeat IPC: 0.614658 cumulative IPC: 0.624413 (Simulation time: 1 hr 14 min 37 sec) 
Heartbeat CPU 0 instructions: 25000000 cycles: 30368750 heartbeat IPC: 0.621956 cumulative IPC: 0.624248 (Simulation time: 1 hr 18 min 23 sec) 
Heartbeat CPU 0 instructions: 26000002 cycles: 31963940 heartbeat IPC: 0.626886 cumulative IPC: 0.624412 (Simulation time: 1 hr 21 min 50 sec) 
Heartbeat CPU 0 instructions: 27000002 cycles: 33576578 heartbeat IPC: 0.620102 cumulative IPC: 0.624157 (Simulation time: 1 hr 25 min 1 sec) 
Heartbeat CPU 0 instructions: 28000000 cycles: 35162349 heartbeat IPC: 0.630607 cumulative IPC: 0.624512 (Simulation time: 1 hr 28 min 12 sec) 
Heartbeat CPU 0 instructions: 29000002 cycles: 36748541 heartbeat IPC: 0.630442 cumulative IPC: 0.624821 (Simulation time: 1 hr 31 min 25 sec) 
Heartbeat CPU 0 instructions: 30000003 cycles: 38336471 heartbeat IPC: 0.629751 cumulative IPC: 0.625066 (Simulation time: 1 hr 34 min 45 sec) 
Heartbeat CPU 0 instructions: 31000001 cycles: 39937945 heartbeat IPC: 0.624424 cumulative IPC: 0.625035 (Simulation time: 1 hr 37 min 54 sec) 
Heartbeat CPU 0 instructions: 32000000 cycles: 41545975 heartbeat IPC: 0.621878 cumulative IPC: 0.624891 (Simulation time: 1 hr 41 min 11 sec) 
Heartbeat CPU 0 instructions: 33000000 cycles: 43139619 heartbeat IPC: 0.627493 cumulative IPC: 0.625004 (Simulation time: 1 hr 44 min 28 sec) 
Heartbeat CPU 0 instructions: 34000003 cycles: 44699640 heartbeat IPC: 0.641019 cumulative IPC: 0.625655 (Simulation time: 1 hr 47 min 36 sec) 
Heartbeat CPU 0 instructions: 35000000 cycles: 46287713 heartbeat IPC: 0.629692 cumulative IPC: 0.625816 (Simulation time: 1 hr 50 min 57 sec) 
Heartbeat CPU 0 instructions: 36000000 cycles: 47888731 heartbeat IPC: 0.624603 cumulative IPC: 0.625769 (Simulation time: 1 hr 54 min 9 sec) 
Heartbeat CPU 0 instructions: 37000001 cycles: 49454515 heartbeat IPC: 0.638658 cumulative IPC: 0.626237 (Simulation time: 1 hr 57 min 26 sec) 
Heartbeat CPU 0 instructions: 38000001 cycles: 51040088 heartbeat IPC: 0.630687 cumulative IPC: 0.626395 (Simulation time: 2 hr 0 min 38 sec) 
Heartbeat CPU 0 instructions: 39000000 cycles: 52647993 heartbeat IPC: 0.621927 cumulative IPC: 0.62624 (Simulation time: 2 hr 3 min 49 sec) 
Heartbeat CPU 0 instructions: 40000000 cycles: 54205068 heartbeat IPC: 0.64223 cumulative IPC: 0.62676 (Simulation time: 2 hr 6 min 50 sec) 
Heartbeat CPU 0 instructions: 41000003 cycles: 55793396 heartbeat IPC: 0.629595 cumulative IPC: 0.626851 (Simulation time: 2 hr 9 min 54 sec) 
Heartbeat CPU 0 instructions: 42000000 cycles: 57394597 heartbeat IPC: 0.624529 cumulative IPC: 0.626778 (Simulation time: 2 hr 13 min 6 sec) 
Heartbeat CPU 0 instructions: 43000000 cycles: 58994155 heartbeat IPC: 0.625173 cumulative IPC: 0.626729 (Simulation time: 2 hr 16 min 2 sec) 
Heartbeat CPU 0 instructions: 44000000 cycles: 60572693 heartbeat IPC: 0.633498 cumulative IPC: 0.626926 (Simulation time: 2 hr 19 min 17 sec) 
Heartbeat CPU 0 instructions: 45000002 cycles: 62150119 heartbeat IPC: 0.633945 cumulative IPC: 0.627125 (Simulation time: 2 hr 22 min 24 sec) 
Heartbeat CPU 0 instructions: 46000002 cycles: 63723495 heartbeat IPC: 0.635576 cumulative IPC: 0.627356 (Simulation time: 2 hr 25 min 32 sec) 
Heartbeat CPU 0 instructions: 47000001 cycles: 65324748 heartbeat IPC: 0.62451 cumulative IPC: 0.627279 (Simulation time: 2 hr 28 min 55 sec) 
Heartbeat CPU 0 instructions: 48000000 cycles: 66921956 heartbeat IPC: 0.626092 cumulative IPC: 0.627248 (Simulation time: 2 hr 32 min 1 sec) 
Heartbeat CPU 0 instructions: 49000000 cycles: 68499226 heartbeat IPC: 0.634007 cumulative IPC: 0.627419 (Simulation time: 2 hr 35 min 13 sec) 
Heartbeat CPU 0 instructions: 50000001 cycles: 70103761 heartbeat IPC: 0.623234 cumulative IPC: 0.627314 (Simulation time: 2 hr 38 min 17 sec) 
Heartbeat CPU 0 instructions: 51000002 cycles: 71702396 heartbeat IPC: 0.625534 cumulative IPC: 0.627271 (Simulation time: 2 hr 41 min 45 sec) 
Heartbeat CPU 0 instructions: 52000000 cycles: 73297169 heartbeat IPC: 0.627047 cumulative IPC: 0.627265 (Simulation time: 2 hr 44 min 58 sec) 
Heartbeat CPU 0 instructions: 53000000 cycles: 74920348 heartbeat IPC: 0.616075 cumulative IPC: 0.627 (Simulation time: 2 hr 48 min 18 sec) 
Heartbeat CPU 0 instructions: 54000000 cycles: 76496800 heartbeat IPC: 0.634336 cumulative IPC: 0.627165 (Simulation time: 2 hr 51 min 30 sec) 
Heartbeat CPU 0 instructions: 55000002 cycles: 78066704 heartbeat IPC: 0.636983 cumulative IPC: 0.62738 (Simulation time: 2 hr 54 min 43 sec) 
Heartbeat CPU 0 instructions: 56000000 cycles: 79673197 heartbeat IPC: 0.622473 cumulative IPC: 0.627273 (Simulation time: 2 hr 57 min 57 sec) 
Heartbeat CPU 0 instructions: 57000000 cycles: 81306470 heartbeat IPC: 0.612267 cumulative IPC: 0.626946 (Simulation time: 3 hr 1 min 12 sec) 
Heartbeat CPU 0 instructions: 58000001 cycles: 82908139 heartbeat IPC: 0.624349 cumulative IPC: 0.626891 (Simulation time: 3 hr 4 min 22 sec) 
Heartbeat CPU 0 instructions: 59000002 cycles: 84501554 heartbeat IPC: 0.627584 cumulative IPC: 0.626906 (Simulation time: 3 hr 7 min 44 sec) 
Heartbeat CPU 0 instructions: 60000000 cycles: 86112501 heartbeat IPC: 0.620752 cumulative IPC: 0.626781 (Simulation time: 3 hr 11 min 5 sec) 
Heartbeat CPU 0 instructions: 61000001 cycles: 87683398 heartbeat IPC: 0.63658 cumulative IPC: 0.62697 (Simulation time: 3 hr 14 min 8 sec) 
Heartbeat CPU 0 instructions: 62000000 cycles: 89253699 heartbeat IPC: 0.63682 cumulative IPC: 0.627157 (Simulation time: 3 hr 17 min 23 sec) 
Heartbeat CPU 0 instructions: 63000003 cycles: 90852238 heartbeat IPC: 0.625573 cumulative IPC: 0.627127 (Simulation time: 3 hr 20 min 25 sec) 
Heartbeat CPU 0 instructions: 64000000 cycles: 92457021 heartbeat IPC: 0.623135 cumulative IPC: 0.627053 (Simulation time: 3 hr 23 min 42 sec) 
Heartbeat CPU 0 instructions: 65000003 cycles: 94074321 heartbeat IPC: 0.618316 cumulative IPC: 0.626892 (Simulation time: 3 hr 26 min 40 sec) 
Heartbeat CPU 0 instructions: 66000000 cycles: 95642449 heartbeat IPC: 0.637701 cumulative IPC: 0.627081 (Simulation time: 3 hr 29 min 51 sec) 
Heartbeat CPU 0 instructions: 67000000 cycles: 97224519 heartbeat IPC: 0.632083 cumulative IPC: 0.627168 (Simulation time: 3 hr 33 min 1 sec) 
Heartbeat CPU 0 instructions: 68000000 cycles: 98806915 heartbeat IPC: 0.631953 cumulative IPC: 0.62725 (Simulation time: 3 hr 36 min 11 sec) 
Heartbeat CPU 0 instructions: 69000000 cycles: 100379752 heartbeat IPC: 0.635794 cumulative IPC: 0.627393 (Simulation time: 3 hr 39 min 5 sec) 
Heartbeat CPU 0 instructions: 70000002 cycles: 102007021 heartbeat IPC: 0.614528 cumulative IPC: 0.627174 (Simulation time: 3 hr 42 min 11 sec) 
Heartbeat CPU 0 instructions: 71000002 cycles: 103651055 heartbeat IPC: 0.60826 cumulative IPC: 0.626855 (Simulation time: 3 hr 45 min 31 sec) 
Heartbeat CPU 0 instructions: 72000000 cycles: 105331088 heartbeat IPC: 0.595225 cumulative IPC: 0.626318 (Simulation time: 3 hr 49 min 14 sec) 
Heartbeat CPU 0 instructions: 73000000 cycles: 107013156 heartbeat IPC: 0.594506 cumulative IPC: 0.625787 (Simulation time: 3 hr 52 min 21 sec) 
Heartbeat CPU 0 instructions: 74000001 cycles: 108727504 heartbeat IPC: 0.583313 cumulative IPC: 0.625075 (Simulation time: 3 hr 55 min 50 sec) 
Heartbeat CPU 0 instructions: 75000003 cycles: 110415100 heartbeat IPC: 0.59256 cumulative IPC: 0.624548 (Simulation time: 3 hr 59 min 20 sec) 
Heartbeat CPU 0 instructions: 76000000 cycles: 112104738 heartbeat IPC: 0.591841 cumulative IPC: 0.624026 (Simulation time: 4 hr 2 min 45 sec) 
Heartbeat CPU 0 instructions: 77000000 cycles: 113801829 heartbeat IPC: 0.589244 cumulative IPC: 0.623476 (Simulation time: 4 hr 6 min 11 sec) 
Heartbeat CPU 0 instructions: 78000001 cycles: 115490015 heartbeat IPC: 0.592352 cumulative IPC: 0.622995 (Simulation time: 4 hr 9 min 29 sec) 
Heartbeat CPU 0 instructions: 79000003 cycles: 117192395 heartbeat IPC: 0.587414 cumulative IPC: 0.622449 (Simulation time: 4 hr 12 min 25 sec) 
Heartbeat CPU 0 instructions: 80000000 cycles: 118892058 heartbeat IPC: 0.58835 cumulative IPC: 0.621934 (Simulation time: 4 hr 15 min 17 sec) 
Heartbeat CPU 0 instructions: 81000000 cycles: 120606997 heartbeat IPC: 0.583111 cumulative IPC: 0.621351 (Simulation time: 4 hr 18 min 11 sec) 
Heartbeat CPU 0 instructions: 82000000 cycles: 122306641 heartbeat IPC: 0.588359 cumulative IPC: 0.620867 (Simulation time: 4 hr 21 min 5 sec) 
Heartbeat CPU 0 instructions: 83000001 cycles: 123997638 heartbeat IPC: 0.591368 cumulative IPC: 0.620443 (Simulation time: 4 hr 23 min 45 sec) 
Heartbeat CPU 0 instructions: 84000000 cycles: 125698722 heartbeat IPC: 0.58786 cumulative IPC: 0.619979 (Simulation time: 4 hr 26 min 18 sec) 
Heartbeat CPU 0 instructions: 85000000 cycles: 127387373 heartbeat IPC: 0.592189 cumulative IPC: 0.619591 (Simulation time: 4 hr 28 min 36 sec) 
Heartbeat CPU 0 instructions: 86000000 cycles: 129071491 heartbeat IPC: 0.593783 cumulative IPC: 0.619237 (Simulation time: 4 hr 30 min 48 sec) 
Heartbeat CPU 0 instructions: 87000001 cycles: 130773040 heartbeat IPC: 0.5877 cumulative IPC: 0.618806 (Simulation time: 4 hr 32 min 54 sec) 
Heartbeat CPU 0 instructions: 88000000 cycles: 132463087 heartbeat IPC: 0.591699 cumulative IPC: 0.618443 (Simulation time: 4 hr 34 min 58 sec) 
Heartbeat CPU 0 instructions: 89000003 cycles: 134155387 heartbeat IPC: 0.590914 cumulative IPC: 0.618078 (Simulation time: 4 hr 37 min 0 sec) 
Heartbeat CPU 0 instructions: 90000000 cycles: 135856732 heartbeat IPC: 0.587768 cumulative IPC: 0.61768 (Simulation time: 4 hr 39 min 0 sec) 
Heartbeat CPU 0 instructions: 91000001 cycles: 137544521 heartbeat IPC: 0.592492 cumulative IPC: 0.617356 (Simulation time: 4 hr 40 min 50 sec) 
Heartbeat CPU 0 instructions: 92000000 cycles: 139242991 heartbeat IPC: 0.588765 cumulative IPC: 0.616991 (Simulation time: 4 hr 42 min 32 sec) 
Heartbeat CPU 0 instructions: 93000003 cycles: 140939722 heartbeat IPC: 0.58937 cumulative IPC: 0.616643 (Simulation time: 4 hr 44 min 9 sec) 
Heartbeat CPU 0 instructions: 94000002 cycles: 142631136 heartbeat IPC: 0.591221 cumulative IPC: 0.616327 (Simulation time: 4 hr 45 min 41 sec) 
Heartbeat CPU 0 instructions: 95000000 cycles: 144332481 heartbeat IPC: 0.587769 cumulative IPC: 0.615975 (Simulation time: 4 hr 46 min 59 sec) 
Heartbeat CPU 0 instructions: 96000000 cycles: 146023312 heartbeat IPC: 0.591425 cumulative IPC: 0.615678 (Simulation time: 4 hr 48 min 12 sec) 
Heartbeat CPU 0 instructions: 97000003 cycles: 147719696 heartbeat IPC: 0.589491 cumulative IPC: 0.615364 (Simulation time: 4 hr 49 min 28 sec) 
Heartbeat CPU 0 instructions: 98000000 cycles: 149418362 heartbeat IPC: 0.588695 cumulative IPC: 0.615047 (Simulation time: 4 hr 50 min 36 sec) 
Heartbeat CPU 0 instructions: 99000001 cycles: 151124562 heartbeat IPC: 0.586098 cumulative IPC: 0.614706 (Simulation time: 4 hr 51 min 38 sec) 
Heartbeat CPU 0 instructions: 100000000 cycles: 152829206 heartbeat IPC: 0.586632 cumulative IPC: 0.614379 (Simulation time: 4 hr 52 min 32 sec) 
Heartbeat CPU 0 instructions: 101000001 cycles: 154515807 heartbeat IPC: 0.592909 cumulative IPC: 0.614135 (Simulation time: 4 hr 53 min 17 sec) 
Heartbeat CPU 0 instructions: 102000002 cycles: 156202932 heartbeat IPC: 0.592725 cumulative IPC: 0.613894 (Simulation time: 4 hr 53 min 58 sec) 
Heartbeat CPU 0 instructions: 103000000 cycles: 157884200 heartbeat IPC: 0.594788 cumulative IPC: 0.613682 (Simulation time: 4 hr 54 min 39 sec) 
Heartbeat CPU 0 instructions: 104000000 cycles: 159570069 heartbeat IPC: 0.593166 cumulative IPC: 0.613456 (Simulation time: 4 hr 55 min 17 sec) 
Heartbeat CPU 0 instructions: 105000000 cycles: 161256779 heartbeat IPC: 0.59287 cumulative IPC: 0.613232 (Simulation time: 4 hr 55 min 51 sec) 
Heartbeat CPU 0 instructions: 106000002 cycles: 162935038 heartbeat IPC: 0.595857 cumulative IPC: 0.613046 (Simulation time: 4 hr 56 min 23 sec) 
Heartbeat CPU 0 instructions: 107000000 cycles: 164630211 heartbeat IPC: 0.589909 cumulative IPC: 0.612798 (Simulation time: 4 hr 56 min 50 sec) 
Heartbeat CPU 0 instructions: 108000000 cycles: 166319182 heartbeat IPC: 0.592076 cumulative IPC: 0.612579 (Simulation time: 4 hr 57 min 15 sec) 
Heartbeat CPU 0 instructions: 109000003 cycles: 168013544 heartbeat IPC: 0.590194 cumulative IPC: 0.612345 (Simulation time: 4 hr 57 min 40 sec) 
Heartbeat CPU 0 instructions: 110000001 cycles: 169699344 heartbeat IPC: 0.593189 cumulative IPC: 0.612147 (Simulation time: 4 hr 58 min 3 sec) 
Finished CPU 0 instructions: 100000003 cycles: 163359492 cummulative IPC: 0.612147 (Simulation time: 4 hr 58 min 3 sec) 

ChampSim completed all CPUs

Region of Interest Statistics

CPU 0 cummulative IPC: 0.612147 instructions: 100000003 cycles: 163359492
LLC TOTAL     ACCESS:    5145120  HIT:     824873  MISS:    4320247
LLC LOAD      ACCESS:     520511  HIT:     129529  MISS:     390982
LLC RFO       ACCESS:         18  HIT:          0  MISS:         18
LLC PREFETCH  ACCESS:    3247295  HIT:     263626  MISS:    2983669
LLC WRITEBACK ACCESS:    1377296  HIT:     431718  MISS:     945578
Insertion Distribution: 
	LOAD 131644 0 80561 195185 
	RFO 0 0 18 0 
	PREF 0 11264 915005 2407087 
	WRITEBACK 0 0 0 1038098 
Total Prefetch Downgrades: 12960
