
*** ChampSim Multicore Out-of-Order Simulator ***

Warmup Instructions: 10000000
Simulation Instructions: 100000000
Configuration: 2
Number of CPUs: 1
LLC sets: 2048
LLC ways: 16
Off-chip DRAM Channels: 1 Width: 64-bit Data Rate: 1600 MT/s

CPU 0 runs /datasets/cs240c-wi22-a00-public/data/Assignment2-gz/wrf_1228B.trace.gz
CPU 0 L1D next line prefetcher
CPU 0 L2C IP-based stride prefetcher
Initialize SRRIP state
Heartbeat CPU 0 instructions: 1000003 cycles: 591062 heartbeat IPC: 1.69187 cumulative IPC: 1.69187 (Simulation time: 0 hr 3 min 1 sec) 
Heartbeat CPU 0 instructions: 2000003 cycles: 1111232 heartbeat IPC: 1.92245 cumulative IPC: 1.79981 (Simulation time: 0 hr 6 min 4 sec) 
Heartbeat CPU 0 instructions: 3000000 cycles: 1729200 heartbeat IPC: 1.6182 cumulative IPC: 1.73491 (Simulation time: 0 hr 9 min 4 sec) 
Heartbeat CPU 0 instructions: 4000000 cycles: 2349854 heartbeat IPC: 1.6112 cumulative IPC: 1.70223 (Simulation time: 0 hr 12 min 9 sec) 
Heartbeat CPU 0 instructions: 5000000 cycles: 3052216 heartbeat IPC: 1.42377 cumulative IPC: 1.63815 (Simulation time: 0 hr 15 min 3 sec) 
Heartbeat CPU 0 instructions: 6000000 cycles: 3612303 heartbeat IPC: 1.78544 cumulative IPC: 1.66099 (Simulation time: 0 hr 17 min 54 sec) 
Heartbeat CPU 0 instructions: 7000001 cycles: 4165070 heartbeat IPC: 1.80908 cumulative IPC: 1.68064 (Simulation time: 0 hr 20 min 35 sec) 
Heartbeat CPU 0 instructions: 8000000 cycles: 4716438 heartbeat IPC: 1.81367 cumulative IPC: 1.6962 (Simulation time: 0 hr 23 min 23 sec) 
Heartbeat CPU 0 instructions: 9000002 cycles: 5266629 heartbeat IPC: 1.81755 cumulative IPC: 1.70887 (Simulation time: 0 hr 26 min 20 sec) 
Heartbeat CPU 0 instructions: 10000001 cycles: 5819526 heartbeat IPC: 1.80865 cumulative IPC: 1.71835 (Simulation time: 0 hr 28 min 59 sec) 

Warmup complete CPU 0 instructions: 10000001 cycles: 5819526 (Simulation time: 0 hr 28 min 59 sec) 

Heartbeat CPU 0 instructions: 11000003 cycles: 6787033 heartbeat IPC: 1.03359 cumulative IPC: 1.03359 (Simulation time: 0 hr 31 min 47 sec) 
Heartbeat CPU 0 instructions: 12000000 cycles: 7779197 heartbeat IPC: 1.00789 cumulative IPC: 1.02058 (Simulation time: 0 hr 34 min 24 sec) 
Heartbeat CPU 0 instructions: 13000003 cycles: 8763605 heartbeat IPC: 1.01584 cumulative IPC: 1.019 (Simulation time: 0 hr 37 min 12 sec) 
Heartbeat CPU 0 instructions: 14000002 cycles: 9731035 heartbeat IPC: 1.03367 cumulative IPC: 1.02262 (Simulation time: 0 hr 39 min 40 sec) 
Heartbeat CPU 0 instructions: 15000001 cycles: 10629575 heartbeat IPC: 1.11292 cumulative IPC: 1.03949 (Simulation time: 0 hr 42 min 21 sec) 
Heartbeat CPU 0 instructions: 16000000 cycles: 11519965 heartbeat IPC: 1.1231 cumulative IPC: 1.05255 (Simulation time: 0 hr 44 min 52 sec) 
Heartbeat CPU 0 instructions: 17000002 cycles: 12435493 heartbeat IPC: 1.09227 cumulative IPC: 1.05805 (Simulation time: 0 hr 47 min 26 sec) 
Heartbeat CPU 0 instructions: 18000003 cycles: 13357353 heartbeat IPC: 1.08476 cumulative IPC: 1.06131 (Simulation time: 0 hr 50 min 8 sec) 
Heartbeat CPU 0 instructions: 19000000 cycles: 14259716 heartbeat IPC: 1.1082 cumulative IPC: 1.06633 (Simulation time: 0 hr 52 min 42 sec) 
Heartbeat CPU 0 instructions: 20000000 cycles: 15168415 heartbeat IPC: 1.10047 cumulative IPC: 1.06965 (Simulation time: 0 hr 55 min 13 sec) 
Heartbeat CPU 0 instructions: 21000000 cycles: 16081049 heartbeat IPC: 1.09573 cumulative IPC: 1.07197 (Simulation time: 0 hr 57 min 52 sec) 
Heartbeat CPU 0 instructions: 22000000 cycles: 17021343 heartbeat IPC: 1.0635 cumulative IPC: 1.07125 (Simulation time: 1 hr 0 min 19 sec) 
Heartbeat CPU 0 instructions: 23000003 cycles: 18013375 heartbeat IPC: 1.00804 cumulative IPC: 1.06611 (Simulation time: 1 hr 2 min 59 sec) 
Heartbeat CPU 0 instructions: 24000000 cycles: 19030495 heartbeat IPC: 0.983165 cumulative IPC: 1.05973 (Simulation time: 1 hr 5 min 36 sec) 
Heartbeat CPU 0 instructions: 25000000 cycles: 20056571 heartbeat IPC: 0.974587 cumulative IPC: 1.05359 (Simulation time: 1 hr 8 min 29 sec) 
Heartbeat CPU 0 instructions: 26000003 cycles: 21099838 heartbeat IPC: 0.95853 cumulative IPC: 1.0471 (Simulation time: 1 hr 11 min 16 sec) 
Heartbeat CPU 0 instructions: 27000003 cycles: 22159451 heartbeat IPC: 0.943741 cumulative IPC: 1.0404 (Simulation time: 1 hr 14 min 11 sec) 
Heartbeat CPU 0 instructions: 28000000 cycles: 23236686 heartbeat IPC: 0.9283 cumulative IPC: 1.03346 (Simulation time: 1 hr 16 min 53 sec) 
Heartbeat CPU 0 instructions: 29000003 cycles: 24768118 heartbeat IPC: 0.652986 cumulative IPC: 1.00271 (Simulation time: 1 hr 20 min 18 sec) 
Heartbeat CPU 0 instructions: 30000000 cycles: 26424010 heartbeat IPC: 0.603902 cumulative IPC: 0.970662 (Simulation time: 1 hr 23 min 26 sec) 
Heartbeat CPU 0 instructions: 31000003 cycles: 28235132 heartbeat IPC: 0.552146 cumulative IPC: 0.936847 (Simulation time: 1 hr 26 min 41 sec) 
Heartbeat CPU 0 instructions: 32000000 cycles: 30100056 heartbeat IPC: 0.536213 cumulative IPC: 0.906076 (Simulation time: 1 hr 29 min 40 sec) 
Heartbeat CPU 0 instructions: 33000001 cycles: 31506496 heartbeat IPC: 0.711016 cumulative IPC: 0.895396 (Simulation time: 1 hr 32 min 40 sec) 
Heartbeat CPU 0 instructions: 34000002 cycles: 33016344 heartbeat IPC: 0.662319 cumulative IPC: 0.882456 (Simulation time: 1 hr 35 min 46 sec) 
Heartbeat CPU 0 instructions: 35000001 cycles: 35008832 heartbeat IPC: 0.501885 cumulative IPC: 0.856478 (Simulation time: 1 hr 38 min 57 sec) 
Heartbeat CPU 0 instructions: 36000000 cycles: 35989108 heartbeat IPC: 1.02012 cumulative IPC: 0.861795 (Simulation time: 1 hr 41 min 44 sec) 
Heartbeat CPU 0 instructions: 37000001 cycles: 36948798 heartbeat IPC: 1.042 cumulative IPC: 0.867351 (Simulation time: 1 hr 44 min 16 sec) 
Heartbeat CPU 0 instructions: 38000003 cycles: 37887407 heartbeat IPC: 1.06541 cumulative IPC: 0.873148 (Simulation time: 1 hr 46 min 45 sec) 
Heartbeat CPU 0 instructions: 39000002 cycles: 38804956 heartbeat IPC: 1.08986 cumulative IPC: 0.879176 (Simulation time: 1 hr 49 min 18 sec) 
Heartbeat CPU 0 instructions: 40000000 cycles: 39710980 heartbeat IPC: 1.10372 cumulative IPC: 0.885179 (Simulation time: 1 hr 51 min 59 sec) 
Heartbeat CPU 0 instructions: 41000000 cycles: 40616776 heartbeat IPC: 1.104 cumulative IPC: 0.890875 (Simulation time: 1 hr 54 min 35 sec) 
Heartbeat CPU 0 instructions: 42000002 cycles: 41535388 heartbeat IPC: 1.0886 cumulative IPC: 0.895961 (Simulation time: 1 hr 57 min 29 sec) 
Heartbeat CPU 0 instructions: 43000002 cycles: 42487547 heartbeat IPC: 1.05024 cumulative IPC: 0.899967 (Simulation time: 2 hr 0 min 17 sec) 
Heartbeat CPU 0 instructions: 44000000 cycles: 43386153 heartbeat IPC: 1.11283 cumulative IPC: 0.905059 (Simulation time: 2 hr 2 min 49 sec) 
Heartbeat CPU 0 instructions: 45000000 cycles: 44243795 heartbeat IPC: 1.16599 cumulative IPC: 0.910883 (Simulation time: 2 hr 5 min 36 sec) 
Heartbeat CPU 0 instructions: 46000001 cycles: 45101784 heartbeat IPC: 1.16552 cumulative IPC: 0.916444 (Simulation time: 2 hr 8 min 22 sec) 
Heartbeat CPU 0 instructions: 47000001 cycles: 45948998 heartbeat IPC: 1.18034 cumulative IPC: 0.922016 (Simulation time: 2 hr 10 min 53 sec) 
Heartbeat CPU 0 instructions: 48000000 cycles: 46778887 heartbeat IPC: 1.20498 cumulative IPC: 0.927749 (Simulation time: 2 hr 13 min 14 sec) 
Heartbeat CPU 0 instructions: 49000001 cycles: 47619378 heartbeat IPC: 1.18978 cumulative IPC: 0.933018 (Simulation time: 2 hr 15 min 37 sec) 
Heartbeat CPU 0 instructions: 50000002 cycles: 48469449 heartbeat IPC: 1.17637 cumulative IPC: 0.937868 (Simulation time: 2 hr 18 min 11 sec) 
Heartbeat CPU 0 instructions: 51000001 cycles: 49325198 heartbeat IPC: 1.16857 cumulative IPC: 0.942406 (Simulation time: 2 hr 20 min 40 sec) 
Heartbeat CPU 0 instructions: 52000000 cycles: 50268402 heartbeat IPC: 1.06021 cumulative IPC: 0.944906 (Simulation time: 2 hr 23 min 20 sec) 
Heartbeat CPU 0 instructions: 53000002 cycles: 51230222 heartbeat IPC: 1.0397 cumulative IPC: 0.946913 (Simulation time: 2 hr 25 min 59 sec) 
Heartbeat CPU 0 instructions: 54000001 cycles: 52189323 heartbeat IPC: 1.04264 cumulative IPC: 0.948894 (Simulation time: 2 hr 28 min 41 sec) 
Heartbeat CPU 0 instructions: 55000001 cycles: 53119942 heartbeat IPC: 1.07455 cumulative IPC: 0.951366 (Simulation time: 2 hr 31 min 27 sec) 
Heartbeat CPU 0 instructions: 56000000 cycles: 54064399 heartbeat IPC: 1.05881 cumulative IPC: 0.953469 (Simulation time: 2 hr 34 min 15 sec) 
Heartbeat CPU 0 instructions: 57000001 cycles: 55002619 heartbeat IPC: 1.06585 cumulative IPC: 0.955613 (Simulation time: 2 hr 37 min 6 sec) 
Heartbeat CPU 0 instructions: 58000000 cycles: 55969361 heartbeat IPC: 1.0344 cumulative IPC: 0.957132 (Simulation time: 2 hr 39 min 55 sec) 
Heartbeat CPU 0 instructions: 59000001 cycles: 57875372 heartbeat IPC: 0.524656 cumulative IPC: 0.941297 (Simulation time: 2 hr 43 min 19 sec) 
Heartbeat CPU 0 instructions: 60000000 cycles: 59550609 heartbeat IPC: 0.59693 cumulative IPC: 0.93056 (Simulation time: 2 hr 46 min 26 sec) 
Heartbeat CPU 0 instructions: 61000000 cycles: 61435863 heartbeat IPC: 0.530433 cumulative IPC: 0.916997 (Simulation time: 2 hr 49 min 52 sec) 
Heartbeat CPU 0 instructions: 62000000 cycles: 63057948 heartbeat IPC: 0.61649 cumulative IPC: 0.908481 (Simulation time: 2 hr 52 min 59 sec) 
Heartbeat CPU 0 instructions: 63000001 cycles: 64522514 heartbeat IPC: 0.682797 cumulative IPC: 0.90285 (Simulation time: 2 hr 56 min 11 sec) 
Heartbeat CPU 0 instructions: 64000000 cycles: 66074469 heartbeat IPC: 0.644348 cumulative IPC: 0.896192 (Simulation time: 2 hr 59 min 17 sec) 
Heartbeat CPU 0 instructions: 65000003 cycles: 67569294 heartbeat IPC: 0.668977 cumulative IPC: 0.890692 (Simulation time: 3 hr 2 min 4 sec) 
Heartbeat CPU 0 instructions: 66000000 cycles: 69064869 heartbeat IPC: 0.668637 cumulative IPC: 0.885441 (Simulation time: 3 hr 5 min 2 sec) 
Heartbeat CPU 0 instructions: 67000000 cycles: 70559393 heartbeat IPC: 0.669109 cumulative IPC: 0.880447 (Simulation time: 3 hr 8 min 6 sec) 
Heartbeat CPU 0 instructions: 68000000 cycles: 72053972 heartbeat IPC: 0.669085 cumulative IPC: 0.875677 (Simulation time: 3 hr 11 min 3 sec) 
Heartbeat CPU 0 instructions: 69000000 cycles: 73561313 heartbeat IPC: 0.66342 cumulative IPC: 0.870954 (Simulation time: 3 hr 14 min 1 sec) 
Heartbeat CPU 0 instructions: 70000001 cycles: 75057894 heartbeat IPC: 0.66819 cumulative IPC: 0.866572 (Simulation time: 3 hr 16 min 42 sec) 
Heartbeat CPU 0 instructions: 71000001 cycles: 76551962 heartbeat IPC: 0.669314 cumulative IPC: 0.862405 (Simulation time: 3 hr 19 min 49 sec) 
Heartbeat CPU 0 instructions: 72000000 cycles: 78035057 heartbeat IPC: 0.674265 cumulative IPC: 0.858541 (Simulation time: 3 hr 22 min 46 sec) 
Heartbeat CPU 0 instructions: 73000003 cycles: 79522765 heartbeat IPC: 0.672177 cumulative IPC: 0.854779 (Simulation time: 3 hr 25 min 48 sec) 
Heartbeat CPU 0 instructions: 74000000 cycles: 81020295 heartbeat IPC: 0.667764 cumulative IPC: 0.851055 (Simulation time: 3 hr 28 min 45 sec) 
Heartbeat CPU 0 instructions: 75000001 cycles: 82514281 heartbeat IPC: 0.669351 cumulative IPC: 0.847516 (Simulation time: 3 hr 31 min 55 sec) 
Heartbeat CPU 0 instructions: 76000000 cycles: 84010712 heartbeat IPC: 0.668256 cumulative IPC: 0.844085 (Simulation time: 3 hr 34 min 55 sec) 
Heartbeat CPU 0 instructions: 77000003 cycles: 85504508 heartbeat IPC: 0.669437 cumulative IPC: 0.840811 (Simulation time: 3 hr 37 min 48 sec) 
Heartbeat CPU 0 instructions: 78000001 cycles: 86999556 heartbeat IPC: 0.668873 cumulative IPC: 0.837644 (Simulation time: 3 hr 40 min 58 sec) 
Heartbeat CPU 0 instructions: 79000000 cycles: 88495990 heartbeat IPC: 0.668255 cumulative IPC: 0.834579 (Simulation time: 3 hr 43 min 58 sec) 
Heartbeat CPU 0 instructions: 80000000 cycles: 89986372 heartbeat IPC: 0.670969 cumulative IPC: 0.831681 (Simulation time: 3 hr 46 min 51 sec) 
Heartbeat CPU 0 instructions: 81000001 cycles: 91470305 heartbeat IPC: 0.673886 cumulative IPC: 0.828947 (Simulation time: 3 hr 49 min 56 sec) 
Heartbeat CPU 0 instructions: 82000000 cycles: 92953267 heartbeat IPC: 0.674325 cumulative IPC: 0.826316 (Simulation time: 3 hr 52 min 54 sec) 
Heartbeat CPU 0 instructions: 83000000 cycles: 94436618 heartbeat IPC: 0.674149 cumulative IPC: 0.823769 (Simulation time: 3 hr 56 min 6 sec) 
Heartbeat CPU 0 instructions: 84000000 cycles: 95931515 heartbeat IPC: 0.668942 cumulative IPC: 0.8212 (Simulation time: 3 hr 59 min 14 sec) 
Heartbeat CPU 0 instructions: 85000000 cycles: 97426611 heartbeat IPC: 0.668853 cumulative IPC: 0.818714 (Simulation time: 4 hr 2 min 3 sec) 
Heartbeat CPU 0 instructions: 86000000 cycles: 98920702 heartbeat IPC: 0.669303 cumulative IPC: 0.816316 (Simulation time: 4 hr 4 min 57 sec) 
Heartbeat CPU 0 instructions: 87000000 cycles: 100415561 heartbeat IPC: 0.668959 cumulative IPC: 0.813988 (Simulation time: 4 hr 8 min 3 sec) 
Heartbeat CPU 0 instructions: 88000000 cycles: 101910776 heartbeat IPC: 0.6688 cumulative IPC: 0.811728 (Simulation time: 4 hr 10 min 54 sec) 
Heartbeat CPU 0 instructions: 89000002 cycles: 103406404 heartbeat IPC: 0.668617 cumulative IPC: 0.809535 (Simulation time: 4 hr 13 min 46 sec) 
Heartbeat CPU 0 instructions: 90000000 cycles: 104890868 heartbeat IPC: 0.673642 cumulative IPC: 0.807499 (Simulation time: 4 hr 16 min 35 sec) 
Heartbeat CPU 0 instructions: 91000000 cycles: 106374488 heartbeat IPC: 0.674027 cumulative IPC: 0.80553 (Simulation time: 4 hr 19 min 12 sec) 
Heartbeat CPU 0 instructions: 92000000 cycles: 107858327 heartbeat IPC: 0.673928 cumulative IPC: 0.803616 (Simulation time: 4 hr 21 min 49 sec) 
Heartbeat CPU 0 instructions: 93000000 cycles: 109348065 heartbeat IPC: 0.671259 cumulative IPC: 0.801711 (Simulation time: 4 hr 24 min 13 sec) 
Heartbeat CPU 0 instructions: 94000003 cycles: 110841918 heartbeat IPC: 0.669412 cumulative IPC: 0.799829 (Simulation time: 4 hr 26 min 31 sec) 
Heartbeat CPU 0 instructions: 95000000 cycles: 112337717 heartbeat IPC: 0.668537 cumulative IPC: 0.797986 (Simulation time: 4 hr 28 min 32 sec) 
Heartbeat CPU 0 instructions: 96000000 cycles: 113831673 heartbeat IPC: 0.669364 cumulative IPC: 0.796207 (Simulation time: 4 hr 30 min 23 sec) 
Heartbeat CPU 0 instructions: 97000001 cycles: 115327223 heartbeat IPC: 0.668651 cumulative IPC: 0.794465 (Simulation time: 4 hr 32 min 24 sec) 
Heartbeat CPU 0 instructions: 98000003 cycles: 116822596 heartbeat IPC: 0.668731 cumulative IPC: 0.792771 (Simulation time: 4 hr 34 min 27 sec) 
Heartbeat CPU 0 instructions: 99000000 cycles: 118311699 heartbeat IPC: 0.671543 cumulative IPC: 0.791166 (Simulation time: 4 hr 36 min 27 sec) 
Heartbeat CPU 0 instructions: 100000000 cycles: 119795089 heartbeat IPC: 0.674132 cumulative IPC: 0.789643 (Simulation time: 4 hr 38 min 27 sec) 
Heartbeat CPU 0 instructions: 101000000 cycles: 121278301 heartbeat IPC: 0.674212 cumulative IPC: 0.78816 (Simulation time: 4 hr 40 min 21 sec) 
Heartbeat CPU 0 instructions: 102000003 cycles: 122761885 heartbeat IPC: 0.674045 cumulative IPC: 0.786712 (Simulation time: 4 hr 42 min 5 sec) 
Heartbeat CPU 0 instructions: 103000003 cycles: 124258145 heartbeat IPC: 0.668333 cumulative IPC: 0.785217 (Simulation time: 4 hr 43 min 45 sec) 
Heartbeat CPU 0 instructions: 104000000 cycles: 125752682 heartbeat IPC: 0.669102 cumulative IPC: 0.78377 (Simulation time: 4 hr 45 min 12 sec) 
Heartbeat CPU 0 instructions: 105000000 cycles: 127247578 heartbeat IPC: 0.668943 cumulative IPC: 0.782356 (Simulation time: 4 hr 46 min 36 sec) 
Heartbeat CPU 0 instructions: 106000000 cycles: 128742725 heartbeat IPC: 0.668831 cumulative IPC: 0.780975 (Simulation time: 4 hr 47 min 55 sec) 
Heartbeat CPU 0 instructions: 107000000 cycles: 130238569 heartbeat IPC: 0.668519 cumulative IPC: 0.779623 (Simulation time: 4 hr 49 min 15 sec) 
Heartbeat CPU 0 instructions: 108000000 cycles: 131734165 heartbeat IPC: 0.66863 cumulative IPC: 0.778305 (Simulation time: 4 hr 50 min 28 sec) 
Heartbeat CPU 0 instructions: 109000003 cycles: 133217021 heartbeat IPC: 0.674376 cumulative IPC: 0.777095 (Simulation time: 4 hr 51 min 35 sec) 
Heartbeat CPU 0 instructions: 110000001 cycles: 134700218 heartbeat IPC: 0.674218 cumulative IPC: 0.775911 (Simulation time: 4 hr 52 min 36 sec) 
Finished CPU 0 instructions: 100000000 cycles: 128880692 cummulative IPC: 0.775911 (Simulation time: 4 hr 52 min 36 sec) 

ChampSim completed all CPUs

Region of Interest Statistics

CPU 0 cummulative IPC: 0.775911 instructions: 100000000 cycles: 128880692
LLC TOTAL     ACCESS:    1495398  HIT:     493442  MISS:    1001956
LLC LOAD      ACCESS:      89873  HIT:      22477  MISS:      67396
LLC RFO       ACCESS:     219211  HIT:      28299  MISS:     190912
LLC PREFETCH  ACCESS:     750167  HIT:     144844  MISS:     605323
LLC WRITEBACK ACCESS:     436147  HIT:     297822  MISS:     138325
Insertion Distribution: 
	LOAD 2418 0 27019 42861 
	RFO 54823 0 103943 107250 
	PREF 0 322 288711 487100 
	WRITEBACK 0 0 0 180157 
Total Prefetch Downgrades: 759
