
*** ChampSim Multicore Out-of-Order Simulator ***

Warmup Instructions: 10000000
Simulation Instructions: 100000000
Configuration: 2
Number of CPUs: 1
LLC sets: 2048
LLC ways: 16
Off-chip DRAM Channels: 1 Width: 64-bit Data Rate: 1600 MT/s

CPU 0 runs /datasets/cs240c-wi22-a00-public/data/Assignment2-gz/wrf_1212B.trace.gz
CPU 0 L1D next line prefetcher
CPU 0 L2C IP-based stride prefetcher
Initialize SRRIP state
Heartbeat CPU 0 instructions: 1000001 cycles: 598660 heartbeat IPC: 1.6704 cumulative IPC: 1.6704 (Simulation time: 0 hr 3 min 12 sec) 
Heartbeat CPU 0 instructions: 2000000 cycles: 1197118 heartbeat IPC: 1.67096 cumulative IPC: 1.67068 (Simulation time: 0 hr 6 min 18 sec) 
Heartbeat CPU 0 instructions: 3000001 cycles: 1795976 heartbeat IPC: 1.66985 cumulative IPC: 1.6704 (Simulation time: 0 hr 9 min 16 sec) 
Heartbeat CPU 0 instructions: 4000000 cycles: 2394087 heartbeat IPC: 1.67193 cumulative IPC: 1.67078 (Simulation time: 0 hr 12 min 33 sec) 
Heartbeat CPU 0 instructions: 5000000 cycles: 2993053 heartbeat IPC: 1.66954 cumulative IPC: 1.67054 (Simulation time: 0 hr 15 min 36 sec) 
Heartbeat CPU 0 instructions: 6000001 cycles: 3592667 heartbeat IPC: 1.66774 cumulative IPC: 1.67007 (Simulation time: 0 hr 18 min 35 sec) 
Heartbeat CPU 0 instructions: 7000001 cycles: 4190665 heartbeat IPC: 1.67225 cumulative IPC: 1.67038 (Simulation time: 0 hr 21 min 39 sec) 
Heartbeat CPU 0 instructions: 8000000 cycles: 4788873 heartbeat IPC: 1.67166 cumulative IPC: 1.67054 (Simulation time: 0 hr 24 min 45 sec) 
Heartbeat CPU 0 instructions: 9000002 cycles: 5387792 heartbeat IPC: 1.66968 cumulative IPC: 1.67044 (Simulation time: 0 hr 27 min 45 sec) 
Heartbeat CPU 0 instructions: 10000001 cycles: 5987357 heartbeat IPC: 1.66787 cumulative IPC: 1.67019 (Simulation time: 0 hr 30 min 48 sec) 

Warmup complete CPU 0 instructions: 10000001 cycles: 5987357 (Simulation time: 0 hr 30 min 48 sec) 

Heartbeat CPU 0 instructions: 11000003 cycles: 7743719 heartbeat IPC: 0.56936 cumulative IPC: 0.56936 (Simulation time: 0 hr 34 min 21 sec) 
Heartbeat CPU 0 instructions: 12000000 cycles: 9513320 heartbeat IPC: 0.565097 cumulative IPC: 0.567221 (Simulation time: 0 hr 38 min 0 sec) 
Heartbeat CPU 0 instructions: 13000000 cycles: 11298746 heartbeat IPC: 0.56009 cumulative IPC: 0.564824 (Simulation time: 0 hr 41 min 45 sec) 
Heartbeat CPU 0 instructions: 14000002 cycles: 13082020 heartbeat IPC: 0.560767 cumulative IPC: 0.563804 (Simulation time: 0 hr 45 min 13 sec) 
Heartbeat CPU 0 instructions: 15000003 cycles: 14873145 heartbeat IPC: 0.558309 cumulative IPC: 0.562697 (Simulation time: 0 hr 48 min 47 sec) 
Heartbeat CPU 0 instructions: 16000000 cycles: 16621152 heartbeat IPC: 0.572078 cumulative IPC: 0.564239 (Simulation time: 0 hr 52 min 13 sec) 
Heartbeat CPU 0 instructions: 17000000 cycles: 18402583 heartbeat IPC: 0.561346 cumulative IPC: 0.563824 (Simulation time: 0 hr 55 min 44 sec) 
Heartbeat CPU 0 instructions: 18000000 cycles: 20184008 heartbeat IPC: 0.561348 cumulative IPC: 0.563513 (Simulation time: 0 hr 59 min 22 sec) 
Heartbeat CPU 0 instructions: 19000003 cycles: 21962577 heartbeat IPC: 0.562251 cumulative IPC: 0.563373 (Simulation time: 1 hr 2 min 54 sec) 
Heartbeat CPU 0 instructions: 20000000 cycles: 23710870 heartbeat IPC: 0.571985 cumulative IPC: 0.564222 (Simulation time: 1 hr 6 min 17 sec) 
Heartbeat CPU 0 instructions: 21000001 cycles: 25477486 heartbeat IPC: 0.566055 cumulative IPC: 0.564388 (Simulation time: 1 hr 9 min 41 sec) 
Heartbeat CPU 0 instructions: 22000001 cycles: 27260244 heartbeat IPC: 0.560929 cumulative IPC: 0.564098 (Simulation time: 1 hr 13 min 11 sec) 
Heartbeat CPU 0 instructions: 23000000 cycles: 29046641 heartbeat IPC: 0.559785 cumulative IPC: 0.563764 (Simulation time: 1 hr 16 min 43 sec) 
Heartbeat CPU 0 instructions: 24000000 cycles: 30828344 heartbeat IPC: 0.561261 cumulative IPC: 0.563585 (Simulation time: 1 hr 20 min 15 sec) 
Heartbeat CPU 0 instructions: 25000002 cycles: 32575404 heartbeat IPC: 0.572391 cumulative IPC: 0.564163 (Simulation time: 1 hr 23 min 40 sec) 
Heartbeat CPU 0 instructions: 26000000 cycles: 34357448 heartbeat IPC: 0.561152 cumulative IPC: 0.563974 (Simulation time: 1 hr 27 min 27 sec) 
Heartbeat CPU 0 instructions: 27000000 cycles: 36139551 heartbeat IPC: 0.561135 cumulative IPC: 0.563806 (Simulation time: 1 hr 31 min 6 sec) 
Heartbeat CPU 0 instructions: 28000000 cycles: 37918243 heartbeat IPC: 0.562211 cumulative IPC: 0.563717 (Simulation time: 1 hr 34 min 43 sec) 
Heartbeat CPU 0 instructions: 29000000 cycles: 39666786 heartbeat IPC: 0.571905 cumulative IPC: 0.564143 (Simulation time: 1 hr 38 min 15 sec) 
Heartbeat CPU 0 instructions: 30000003 cycles: 41427936 heartbeat IPC: 0.567813 cumulative IPC: 0.564325 (Simulation time: 1 hr 41 min 49 sec) 
Heartbeat CPU 0 instructions: 31000000 cycles: 43210473 heartbeat IPC: 0.560996 cumulative IPC: 0.564166 (Simulation time: 1 hr 45 min 22 sec) 
Heartbeat CPU 0 instructions: 32000000 cycles: 44991772 heartbeat IPC: 0.561388 cumulative IPC: 0.564039 (Simulation time: 1 hr 48 min 56 sec) 
Heartbeat CPU 0 instructions: 33000000 cycles: 46776266 heartbeat IPC: 0.560383 cumulative IPC: 0.563879 (Simulation time: 1 hr 52 min 34 sec) 
Heartbeat CPU 0 instructions: 34000000 cycles: 48515020 heartbeat IPC: 0.575125 cumulative IPC: 0.564339 (Simulation time: 1 hr 56 min 17 sec) 
Heartbeat CPU 0 instructions: 35000003 cycles: 50297649 heartbeat IPC: 0.560971 cumulative IPC: 0.564203 (Simulation time: 1 hr 59 min 53 sec) 
Heartbeat CPU 0 instructions: 36000000 cycles: 52078500 heartbeat IPC: 0.561528 cumulative IPC: 0.5641 (Simulation time: 2 hr 3 min 26 sec) 
Heartbeat CPU 0 instructions: 37000001 cycles: 53862128 heartbeat IPC: 0.560656 cumulative IPC: 0.563971 (Simulation time: 2 hr 6 min 50 sec) 
Heartbeat CPU 0 instructions: 38000000 cycles: 55613716 heartbeat IPC: 0.57091 cumulative IPC: 0.564216 (Simulation time: 2 hr 10 min 32 sec) 
Heartbeat CPU 0 instructions: 39000000 cycles: 57368381 heartbeat IPC: 0.569909 cumulative IPC: 0.564411 (Simulation time: 2 hr 13 min 58 sec) 
Heartbeat CPU 0 instructions: 40000000 cycles: 59149821 heartbeat IPC: 0.561344 cumulative IPC: 0.564308 (Simulation time: 2 hr 17 min 48 sec) 
Heartbeat CPU 0 instructions: 41000001 cycles: 60931899 heartbeat IPC: 0.561143 cumulative IPC: 0.564205 (Simulation time: 2 hr 21 min 43 sec) 
Heartbeat CPU 0 instructions: 42000003 cycles: 62715509 heartbeat IPC: 0.560662 cumulative IPC: 0.564094 (Simulation time: 2 hr 25 min 13 sec) 
Heartbeat CPU 0 instructions: 43000001 cycles: 64443155 heartbeat IPC: 0.578821 cumulative IPC: 0.564529 (Simulation time: 2 hr 28 min 47 sec) 
Heartbeat CPU 0 instructions: 44000000 cycles: 66223916 heartbeat IPC: 0.561557 cumulative IPC: 0.564441 (Simulation time: 2 hr 32 min 23 sec) 
Heartbeat CPU 0 instructions: 45000001 cycles: 68004076 heartbeat IPC: 0.561748 cumulative IPC: 0.564364 (Simulation time: 2 hr 36 min 8 sec) 
Heartbeat CPU 0 instructions: 46000001 cycles: 69783135 heartbeat IPC: 0.562095 cumulative IPC: 0.564301 (Simulation time: 2 hr 39 min 39 sec) 
Heartbeat CPU 0 instructions: 47000000 cycles: 71535332 heartbeat IPC: 0.570711 cumulative IPC: 0.564472 (Simulation time: 2 hr 43 min 10 sec) 
Heartbeat CPU 0 instructions: 48000000 cycles: 73276779 heartbeat IPC: 0.574235 cumulative IPC: 0.564725 (Simulation time: 2 hr 46 min 43 sec) 
Heartbeat CPU 0 instructions: 49000002 cycles: 75058617 heartbeat IPC: 0.561219 cumulative IPC: 0.564634 (Simulation time: 2 hr 50 min 25 sec) 
Heartbeat CPU 0 instructions: 50000002 cycles: 76839121 heartbeat IPC: 0.561639 cumulative IPC: 0.564559 (Simulation time: 2 hr 53 min 59 sec) 
Heartbeat CPU 0 instructions: 51000002 cycles: 78638745 heartbeat IPC: 0.555672 cumulative IPC: 0.564339 (Simulation time: 2 hr 57 min 31 sec) 
Heartbeat CPU 0 instructions: 52000000 cycles: 80362205 heartbeat IPC: 0.580227 cumulative IPC: 0.564707 (Simulation time: 3 hr 0 min 55 sec) 
Heartbeat CPU 0 instructions: 53000002 cycles: 82129036 heartbeat IPC: 0.565986 cumulative IPC: 0.564737 (Simulation time: 3 hr 4 min 23 sec) 
Heartbeat CPU 0 instructions: 54000001 cycles: 83909575 heartbeat IPC: 0.561627 cumulative IPC: 0.564666 (Simulation time: 3 hr 7 min 54 sec) 
Heartbeat CPU 0 instructions: 55000000 cycles: 85689561 heartbeat IPC: 0.561802 cumulative IPC: 0.564602 (Simulation time: 3 hr 11 min 33 sec) 
Heartbeat CPU 0 instructions: 56000000 cycles: 87463686 heartbeat IPC: 0.563658 cumulative IPC: 0.564581 (Simulation time: 3 hr 14 min 55 sec) 
Heartbeat CPU 0 instructions: 57000001 cycles: 89189437 heartbeat IPC: 0.579458 cumulative IPC: 0.56489 (Simulation time: 3 hr 18 min 27 sec) 
Heartbeat CPU 0 instructions: 58000001 cycles: 90969550 heartbeat IPC: 0.561762 cumulative IPC: 0.564824 (Simulation time: 3 hr 21 min 56 sec) 
Heartbeat CPU 0 instructions: 59000000 cycles: 92751979 heartbeat IPC: 0.561032 cumulative IPC: 0.564746 (Simulation time: 3 hr 25 min 37 sec) 
Heartbeat CPU 0 instructions: 60000000 cycles: 94534831 heartbeat IPC: 0.560899 cumulative IPC: 0.564669 (Simulation time: 3 hr 29 min 6 sec) 
Heartbeat CPU 0 instructions: 61000001 cycles: 96274501 heartbeat IPC: 0.574822 cumulative IPC: 0.564864 (Simulation time: 3 hr 32 min 35 sec) 
Heartbeat CPU 0 instructions: 62000001 cycles: 98017274 heartbeat IPC: 0.573798 cumulative IPC: 0.565034 (Simulation time: 3 hr 35 min 57 sec) 
Heartbeat CPU 0 instructions: 63000002 cycles: 99802681 heartbeat IPC: 0.560097 cumulative IPC: 0.56494 (Simulation time: 3 hr 39 min 34 sec) 
Heartbeat CPU 0 instructions: 64000000 cycles: 101585506 heartbeat IPC: 0.560906 cumulative IPC: 0.564864 (Simulation time: 3 hr 43 min 13 sec) 
Heartbeat CPU 0 instructions: 65000000 cycles: 103371796 heartbeat IPC: 0.55982 cumulative IPC: 0.564772 (Simulation time: 3 hr 46 min 35 sec) 
Heartbeat CPU 0 instructions: 66000001 cycles: 105085435 heartbeat IPC: 0.583554 cumulative IPC: 0.565097 (Simulation time: 3 hr 50 min 0 sec) 
Heartbeat CPU 0 instructions: 67000002 cycles: 106841790 heartbeat IPC: 0.569362 cumulative IPC: 0.565171 (Simulation time: 3 hr 53 min 37 sec) 
Heartbeat CPU 0 instructions: 68000000 cycles: 108626944 heartbeat IPC: 0.560175 cumulative IPC: 0.565084 (Simulation time: 3 hr 57 min 18 sec) 
Heartbeat CPU 0 instructions: 69000001 cycles: 110409617 heartbeat IPC: 0.560956 cumulative IPC: 0.565014 (Simulation time: 4 hr 0 min 34 sec) 
Heartbeat CPU 0 instructions: 70000000 cycles: 112179027 heartbeat IPC: 0.56516 cumulative IPC: 0.565016 (Simulation time: 4 hr 4 min 4 sec) 
Heartbeat CPU 0 instructions: 71000001 cycles: 113894346 heartbeat IPC: 0.582983 cumulative IPC: 0.565302 (Simulation time: 4 hr 7 min 12 sec) 
Heartbeat CPU 0 instructions: 72000000 cycles: 115671094 heartbeat IPC: 0.562825 cumulative IPC: 0.565262 (Simulation time: 4 hr 10 min 37 sec) 
Heartbeat CPU 0 instructions: 73000001 cycles: 117458985 heartbeat IPC: 0.559319 cumulative IPC: 0.565166 (Simulation time: 4 hr 13 min 56 sec) 
Heartbeat CPU 0 instructions: 74000000 cycles: 119238470 heartbeat IPC: 0.56196 cumulative IPC: 0.565116 (Simulation time: 4 hr 17 min 9 sec) 
Heartbeat CPU 0 instructions: 75000002 cycles: 120994227 heartbeat IPC: 0.569556 cumulative IPC: 0.565184 (Simulation time: 4 hr 20 min 18 sec) 
Heartbeat CPU 0 instructions: 76000000 cycles: 122728405 heartbeat IPC: 0.576641 cumulative IPC: 0.565354 (Simulation time: 4 hr 23 min 16 sec) 
Heartbeat CPU 0 instructions: 77000003 cycles: 124505765 heartbeat IPC: 0.562634 cumulative IPC: 0.565313 (Simulation time: 4 hr 26 min 9 sec) 
Heartbeat CPU 0 instructions: 78000000 cycles: 126287528 heartbeat IPC: 0.56124 cumulative IPC: 0.565253 (Simulation time: 4 hr 28 min 41 sec) 
Heartbeat CPU 0 instructions: 79000000 cycles: 128084182 heartbeat IPC: 0.55659 cumulative IPC: 0.565125 (Simulation time: 4 hr 31 min 0 sec) 
Heartbeat CPU 0 instructions: 80000000 cycles: 129802483 heartbeat IPC: 0.58197 cumulative IPC: 0.565359 (Simulation time: 4 hr 33 min 13 sec) 
Heartbeat CPU 0 instructions: 81000003 cycles: 131568405 heartbeat IPC: 0.566278 cumulative IPC: 0.565372 (Simulation time: 4 hr 35 min 19 sec) 
Heartbeat CPU 0 instructions: 82000002 cycles: 133358387 heartbeat IPC: 0.558664 cumulative IPC: 0.565278 (Simulation time: 4 hr 37 min 28 sec) 
Heartbeat CPU 0 instructions: 83000001 cycles: 135143159 heartbeat IPC: 0.560295 cumulative IPC: 0.565209 (Simulation time: 4 hr 39 min 37 sec) 
Heartbeat CPU 0 instructions: 84000000 cycles: 136919523 heartbeat IPC: 0.562947 cumulative IPC: 0.565178 (Simulation time: 4 hr 41 min 33 sec) 
Heartbeat CPU 0 instructions: 85000000 cycles: 138637177 heartbeat IPC: 0.582189 cumulative IPC: 0.565398 (Simulation time: 4 hr 43 min 12 sec) 
Heartbeat CPU 0 instructions: 86000001 cycles: 140422410 heartbeat IPC: 0.560152 cumulative IPC: 0.565329 (Simulation time: 4 hr 44 min 53 sec) 
Heartbeat CPU 0 instructions: 87000000 cycles: 142204384 heartbeat IPC: 0.561175 cumulative IPC: 0.565274 (Simulation time: 4 hr 46 min 25 sec) 
Heartbeat CPU 0 instructions: 88000000 cycles: 143980860 heartbeat IPC: 0.562912 cumulative IPC: 0.565244 (Simulation time: 4 hr 47 min 51 sec) 
Heartbeat CPU 0 instructions: 89000000 cycles: 145732076 heartbeat IPC: 0.571032 cumulative IPC: 0.565316 (Simulation time: 4 hr 49 min 6 sec) 
Heartbeat CPU 0 instructions: 90000000 cycles: 147487914 heartbeat IPC: 0.569529 cumulative IPC: 0.565369 (Simulation time: 4 hr 50 min 15 sec) 
Heartbeat CPU 0 instructions: 91000001 cycles: 149267443 heartbeat IPC: 0.561947 cumulative IPC: 0.565326 (Simulation time: 4 hr 51 min 14 sec) 
Heartbeat CPU 0 instructions: 92000000 cycles: 151050044 heartbeat IPC: 0.560977 cumulative IPC: 0.565273 (Simulation time: 4 hr 52 min 6 sec) 
Heartbeat CPU 0 instructions: 93000003 cycles: 152832598 heartbeat IPC: 0.560995 cumulative IPC: 0.565221 (Simulation time: 4 hr 52 min 51 sec) 
Heartbeat CPU 0 instructions: 94000001 cycles: 154559393 heartbeat IPC: 0.579106 cumulative IPC: 0.565382 (Simulation time: 4 hr 53 min 32 sec) 
Heartbeat CPU 0 instructions: 95000001 cycles: 156340028 heartbeat IPC: 0.561597 cumulative IPC: 0.565337 (Simulation time: 4 hr 54 min 13 sec) 
Heartbeat CPU 0 instructions: 96000000 cycles: 158121594 heartbeat IPC: 0.561303 cumulative IPC: 0.56529 (Simulation time: 4 hr 54 min 51 sec) 
Heartbeat CPU 0 instructions: 97000000 cycles: 159900738 heartbeat IPC: 0.562068 cumulative IPC: 0.565253 (Simulation time: 4 hr 55 min 26 sec) 
Heartbeat CPU 0 instructions: 98000000 cycles: 161662856 heartbeat IPC: 0.567499 cumulative IPC: 0.565278 (Simulation time: 4 hr 55 min 57 sec) 
Heartbeat CPU 0 instructions: 99000000 cycles: 163416996 heartbeat IPC: 0.57008 cumulative IPC: 0.565332 (Simulation time: 4 hr 56 min 25 sec) 
Heartbeat CPU 0 instructions: 100000000 cycles: 165195494 heartbeat IPC: 0.562272 cumulative IPC: 0.565298 (Simulation time: 4 hr 56 min 52 sec) 
Heartbeat CPU 0 instructions: 101000000 cycles: 166973530 heartbeat IPC: 0.562418 cumulative IPC: 0.565266 (Simulation time: 4 hr 57 min 17 sec) 
Heartbeat CPU 0 instructions: 102000003 cycles: 168761979 heartbeat IPC: 0.559145 cumulative IPC: 0.565199 (Simulation time: 4 hr 57 min 40 sec) 
Heartbeat CPU 0 instructions: 103000001 cycles: 170494161 heartbeat IPC: 0.577305 cumulative IPC: 0.565326 (Simulation time: 4 hr 58 min 1 sec) 
Heartbeat CPU 0 instructions: 104000000 cycles: 172279001 heartbeat IPC: 0.560274 cumulative IPC: 0.565272 (Simulation time: 4 hr 58 min 20 sec) 
Heartbeat CPU 0 instructions: 105000002 cycles: 174059253 heartbeat IPC: 0.561719 cumulative IPC: 0.565234 (Simulation time: 4 hr 58 min 38 sec) 
Heartbeat CPU 0 instructions: 106000001 cycles: 175836515 heartbeat IPC: 0.562663 cumulative IPC: 0.565207 (Simulation time: 4 hr 58 min 55 sec) 
Heartbeat CPU 0 instructions: 107000003 cycles: 177595485 heartbeat IPC: 0.568516 cumulative IPC: 0.565241 (Simulation time: 4 hr 59 min 11 sec) 
Heartbeat CPU 0 instructions: 108000000 cycles: 179360785 heartbeat IPC: 0.566474 cumulative IPC: 0.565254 (Simulation time: 4 hr 59 min 27 sec) 
Heartbeat CPU 0 instructions: 109000002 cycles: 181144994 heartbeat IPC: 0.560474 cumulative IPC: 0.565205 (Simulation time: 4 hr 59 min 43 sec) 
Heartbeat CPU 0 instructions: 110000003 cycles: 182924052 heartbeat IPC: 0.562096 cumulative IPC: 0.565174 (Simulation time: 4 hr 59 min 58 sec) 
Finished CPU 0 instructions: 100000002 cycles: 176936695 cummulative IPC: 0.565174 (Simulation time: 4 hr 59 min 58 sec) 

ChampSim completed all CPUs

Region of Interest Statistics

CPU 0 cummulative IPC: 0.565174 instructions: 100000002 cycles: 176936695
LLC TOTAL     ACCESS:     134696  HIT:      40594  MISS:      94102
LLC LOAD      ACCESS:      14864  HIT:       4284  MISS:      10580
LLC RFO       ACCESS:       1241  HIT:        337  MISS:        904
LLC PREFETCH  ACCESS:      79486  HIT:      10366  MISS:      69120
LLC WRITEBACK ACCESS:      39105  HIT:      25607  MISS:      13498
Insertion Distribution: 
	LOAD 548 0 11001 683 
	RFO 0 0 1102 128 
	PREF 0 0 41306 36010 
	WRITEBACK 0 0 0 13498 
Total Prefetch Downgrades: 323
