
*** ChampSim Multicore Out-of-Order Simulator ***

Warmup Instructions: 10000000
Simulation Instructions: 100000000
Configuration: 2
Number of CPUs: 1
LLC sets: 2048
LLC ways: 16
Off-chip DRAM Channels: 1 Width: 64-bit Data Rate: 1600 MT/s

CPU 0 runs /datasets/cs240c-wi22-a00-public/data/Assignment2-gz/mcf_46B.trace.gz
CPU 0 L1D next line prefetcher
CPU 0 L2C IP-based stride prefetcher
Initialize SRRIP state
Heartbeat CPU 0 instructions: 1000002 cycles: 492133 heartbeat IPC: 2.03198 cumulative IPC: 2.03198 (Simulation time: 0 hr 3 min 7 sec) 
Heartbeat CPU 0 instructions: 2000002 cycles: 987173 heartbeat IPC: 2.02004 cumulative IPC: 2.02599 (Simulation time: 0 hr 6 min 10 sec) 
Heartbeat CPU 0 instructions: 3000003 cycles: 1514138 heartbeat IPC: 1.89766 cumulative IPC: 1.98133 (Simulation time: 0 hr 9 min 18 sec) 
Heartbeat CPU 0 instructions: 4000000 cycles: 2034415 heartbeat IPC: 1.92205 cumulative IPC: 1.96617 (Simulation time: 0 hr 12 min 50 sec) 
Heartbeat CPU 0 instructions: 5000000 cycles: 2527666 heartbeat IPC: 2.02737 cumulative IPC: 1.97811 (Simulation time: 0 hr 16 min 2 sec) 
Heartbeat CPU 0 instructions: 6000002 cycles: 3030379 heartbeat IPC: 1.98921 cumulative IPC: 1.97995 (Simulation time: 0 hr 19 min 3 sec) 
Heartbeat CPU 0 instructions: 7000001 cycles: 3576076 heartbeat IPC: 1.83252 cumulative IPC: 1.95745 (Simulation time: 0 hr 22 min 12 sec) 
Heartbeat CPU 0 instructions: 8000000 cycles: 4066619 heartbeat IPC: 2.03856 cumulative IPC: 1.96724 (Simulation time: 0 hr 25 min 7 sec) 
Heartbeat CPU 0 instructions: 9000001 cycles: 4549758 heartbeat IPC: 2.0698 cumulative IPC: 1.97813 (Simulation time: 0 hr 28 min 14 sec) 
Heartbeat CPU 0 instructions: 10000001 cycles: 5087083 heartbeat IPC: 1.86107 cumulative IPC: 1.96576 (Simulation time: 0 hr 31 min 13 sec) 

Warmup complete CPU 0 instructions: 10000001 cycles: 5087083 (Simulation time: 0 hr 31 min 13 sec) 

Heartbeat CPU 0 instructions: 11000002 cycles: 16109734 heartbeat IPC: 0.0907224 cumulative IPC: 0.0907224 (Simulation time: 0 hr 36 min 11 sec) 
Heartbeat CPU 0 instructions: 12000000 cycles: 20242254 heartbeat IPC: 0.241983 cumulative IPC: 0.131968 (Simulation time: 0 hr 40 min 1 sec) 
Heartbeat CPU 0 instructions: 13000000 cycles: 27598984 heartbeat IPC: 0.13593 cumulative IPC: 0.133263 (Simulation time: 0 hr 44 min 27 sec) 
Heartbeat CPU 0 instructions: 14000003 cycles: 42344716 heartbeat IPC: 0.0678164 cumulative IPC: 0.107361 (Simulation time: 0 hr 50 min 14 sec) 
Heartbeat CPU 0 instructions: 15000000 cycles: 46561990 heartbeat IPC: 0.237119 cumulative IPC: 0.120555 (Simulation time: 0 hr 54 min 9 sec) 
Heartbeat CPU 0 instructions: 16000000 cycles: 50360671 heartbeat IPC: 0.263249 cumulative IPC: 0.132528 (Simulation time: 0 hr 58 min 1 sec) 
Heartbeat CPU 0 instructions: 17000002 cycles: 66019382 heartbeat IPC: 0.0638623 cumulative IPC: 0.114882 (Simulation time: 1 hr 3 min 53 sec) 
Heartbeat CPU 0 instructions: 18000001 cycles: 71339669 heartbeat IPC: 0.18796 cumulative IPC: 0.12075 (Simulation time: 1 hr 8 min 4 sec) 
Heartbeat CPU 0 instructions: 19000002 cycles: 75909841 heartbeat IPC: 0.21881 cumulative IPC: 0.127078 (Simulation time: 1 hr 12 min 5 sec) 
Heartbeat CPU 0 instructions: 20000000 cycles: 88077702 heartbeat IPC: 0.0821835 cumulative IPC: 0.120496 (Simulation time: 1 hr 17 min 22 sec) 
Heartbeat CPU 0 instructions: 21000002 cycles: 104259399 heartbeat IPC: 0.0617983 cumulative IPC: 0.110918 (Simulation time: 1 hr 23 min 25 sec) 
Heartbeat CPU 0 instructions: 22000002 cycles: 108501702 heartbeat IPC: 0.235721 cumulative IPC: 0.116038 (Simulation time: 1 hr 27 min 18 sec) 
Heartbeat CPU 0 instructions: 23000001 cycles: 112313235 heartbeat IPC: 0.262361 cumulative IPC: 0.121239 (Simulation time: 1 hr 31 min 10 sec) 
Heartbeat CPU 0 instructions: 24000000 cycles: 125324615 heartbeat IPC: 0.0768557 cumulative IPC: 0.116436 (Simulation time: 1 hr 36 min 48 sec) 
Heartbeat CPU 0 instructions: 25000002 cycles: 133078758 heartbeat IPC: 0.128964 cumulative IPC: 0.117195 (Simulation time: 1 hr 41 min 42 sec) 
Heartbeat CPU 0 instructions: 26000001 cycles: 136883670 heartbeat IPC: 0.262818 cumulative IPC: 0.121399 (Simulation time: 1 hr 45 min 27 sec) 
Heartbeat CPU 0 instructions: 27000000 cycles: 146539023 heartbeat IPC: 0.103569 cumulative IPC: 0.120182 (Simulation time: 1 hr 50 min 11 sec) 
Heartbeat CPU 0 instructions: 28000000 cycles: 157969528 heartbeat IPC: 0.0874852 cumulative IPC: 0.117738 (Simulation time: 1 hr 55 min 33 sec) 
Heartbeat CPU 0 instructions: 29000001 cycles: 162257102 heartbeat IPC: 0.233232 cumulative IPC: 0.120888 (Simulation time: 1 hr 59 min 30 sec) 
Heartbeat CPU 0 instructions: 30000000 cycles: 169415071 heartbeat IPC: 0.139704 cumulative IPC: 0.121708 (Simulation time: 2 hr 3 min 41 sec) 
Heartbeat CPU 0 instructions: 31000001 cycles: 183279569 heartbeat IPC: 0.0721267 cumulative IPC: 0.11785 (Simulation time: 2 hr 9 min 33 sec) 
Heartbeat CPU 0 instructions: 32000000 cycles: 187555604 heartbeat IPC: 0.233861 cumulative IPC: 0.120569 (Simulation time: 2 hr 13 min 37 sec) 
Heartbeat CPU 0 instructions: 33000000 cycles: 193696655 heartbeat IPC: 0.162839 cumulative IPC: 0.121945 (Simulation time: 2 hr 17 min 29 sec) 
Heartbeat CPU 0 instructions: 34000000 cycles: 208910439 heartbeat IPC: 0.0657299 cumulative IPC: 0.117749 (Simulation time: 2 hr 23 min 17 sec) 
Heartbeat CPU 0 instructions: 35000000 cycles: 214962503 heartbeat IPC: 0.165233 cumulative IPC: 0.119118 (Simulation time: 2 hr 27 min 28 sec) 
Heartbeat CPU 0 instructions: 36000000 cycles: 220911954 heartbeat IPC: 0.168083 cumulative IPC: 0.120468 (Simulation time: 2 hr 31 min 34 sec) 
Heartbeat CPU 0 instructions: 37000002 cycles: 231130423 heartbeat IPC: 0.0978622 cumulative IPC: 0.119446 (Simulation time: 2 hr 36 min 14 sec) 
Heartbeat CPU 0 instructions: 38000001 cycles: 242033228 heartbeat IPC: 0.0917194 cumulative IPC: 0.11817 (Simulation time: 2 hr 41 min 35 sec) 
Heartbeat CPU 0 instructions: 39000000 cycles: 246104182 heartbeat IPC: 0.245642 cumulative IPC: 0.120323 (Simulation time: 2 hr 45 min 15 sec) 
Heartbeat CPU 0 instructions: 40000000 cycles: 251866853 heartbeat IPC: 0.173531 cumulative IPC: 0.121566 (Simulation time: 2 hr 49 min 40 sec) 
Heartbeat CPU 0 instructions: 41000000 cycles: 266680888 heartbeat IPC: 0.0675036 cumulative IPC: 0.118504 (Simulation time: 2 hr 55 min 33 sec) 
Heartbeat CPU 0 instructions: 42000001 cycles: 271410366 heartbeat IPC: 0.21144 cumulative IPC: 0.120155 (Simulation time: 2 hr 59 min 19 sec) 
Heartbeat CPU 0 instructions: 43000000 cycles: 275351800 heartbeat IPC: 0.253715 cumulative IPC: 0.122103 (Simulation time: 3 hr 2 min 34 sec) 
Heartbeat CPU 0 instructions: 44000000 cycles: 288799263 heartbeat IPC: 0.0743635 cumulative IPC: 0.11984 (Simulation time: 3 hr 8 min 1 sec) 
Heartbeat CPU 0 instructions: 45000001 cycles: 296262407 heartbeat IPC: 0.133992 cumulative IPC: 0.120202 (Simulation time: 3 hr 12 min 38 sec) 
Heartbeat CPU 0 instructions: 46000001 cycles: 300340249 heartbeat IPC: 0.245228 cumulative IPC: 0.121929 (Simulation time: 3 hr 16 min 23 sec) 
Heartbeat CPU 0 instructions: 47000002 cycles: 309757779 heartbeat IPC: 0.106185 cumulative IPC: 0.121443 (Simulation time: 3 hr 20 min 52 sec) 
Heartbeat CPU 0 instructions: 48000000 cycles: 321337778 heartbeat IPC: 0.0863556 cumulative IPC: 0.120158 (Simulation time: 3 hr 26 min 13 sec) 
Heartbeat CPU 0 instructions: 49000000 cycles: 325836161 heartbeat IPC: 0.222302 cumulative IPC: 0.12159 (Simulation time: 3 hr 29 min 49 sec) 
Heartbeat CPU 0 instructions: 50000001 cycles: 331981262 heartbeat IPC: 0.162731 cumulative IPC: 0.122364 (Simulation time: 3 hr 33 min 40 sec) 
Heartbeat CPU 0 instructions: 51000001 cycles: 346730049 heartbeat IPC: 0.0678022 cumulative IPC: 0.120008 (Simulation time: 3 hr 39 min 40 sec) 
Heartbeat CPU 0 instructions: 52000000 cycles: 351246312 heartbeat IPC: 0.221422 cumulative IPC: 0.121331 (Simulation time: 3 hr 43 min 11 sec) 
Heartbeat CPU 0 instructions: 53000000 cycles: 355298419 heartbeat IPC: 0.246785 cumulative IPC: 0.122783 (Simulation time: 3 hr 46 min 42 sec) 
Heartbeat CPU 0 instructions: 54000002 cycles: 371175145 heartbeat IPC: 0.0629854 cumulative IPC: 0.12019 (Simulation time: 3 hr 52 min 32 sec) 
Heartbeat CPU 0 instructions: 55000002 cycles: 376362496 heartbeat IPC: 0.192777 cumulative IPC: 0.121204 (Simulation time: 3 hr 56 min 33 sec) 
Heartbeat CPU 0 instructions: 56000000 cycles: 380560787 heartbeat IPC: 0.238192 cumulative IPC: 0.122512 (Simulation time: 4 hr 0 min 6 sec) 
Heartbeat CPU 0 instructions: 57000000 cycles: 394105036 heartbeat IPC: 0.0738321 cumulative IPC: 0.120817 (Simulation time: 4 hr 5 min 20 sec) 
Heartbeat CPU 0 instructions: 58000000 cycles: 401627515 heartbeat IPC: 0.132935 cumulative IPC: 0.121047 (Simulation time: 4 hr 9 min 33 sec) 
Heartbeat CPU 0 instructions: 59000002 cycles: 405751079 heartbeat IPC: 0.242509 cumulative IPC: 0.122297 (Simulation time: 4 hr 12 min 54 sec) 
Heartbeat CPU 0 instructions: 60000000 cycles: 417625662 heartbeat IPC: 0.0842133 cumulative IPC: 0.121201 (Simulation time: 4 hr 17 min 39 sec) 
Heartbeat CPU 0 instructions: 61000002 cycles: 427255869 heartbeat IPC: 0.10384 cumulative IPC: 0.120805 (Simulation time: 4 hr 21 min 48 sec) 
Heartbeat CPU 0 instructions: 62000001 cycles: 431362417 heartbeat IPC: 0.243513 cumulative IPC: 0.121987 (Simulation time: 4 hr 24 min 42 sec) 
Heartbeat CPU 0 instructions: 63000001 cycles: 441437301 heartbeat IPC: 0.0992567 cumulative IPC: 0.121462 (Simulation time: 4 hr 28 min 20 sec) 
Heartbeat CPU 0 instructions: 64000000 cycles: 453052898 heartbeat IPC: 0.0860911 cumulative IPC: 0.120545 (Simulation time: 4 hr 31 min 43 sec) 
Heartbeat CPU 0 instructions: 65000002 cycles: 458326466 heartbeat IPC: 0.189625 cumulative IPC: 0.121349 (Simulation time: 4 hr 34 min 6 sec) 
Heartbeat CPU 0 instructions: 66000000 cycles: 464510393 heartbeat IPC: 0.161709 cumulative IPC: 0.121892 (Simulation time: 4 hr 36 min 23 sec) 
Heartbeat CPU 0 instructions: 67000002 cycles: 480774075 heartbeat IPC: 0.0614868 cumulative IPC: 0.119827 (Simulation time: 4 hr 39 min 53 sec) 
Heartbeat CPU 0 instructions: 68000000 cycles: 485186710 heartbeat IPC: 0.226622 cumulative IPC: 0.120808 (Simulation time: 4 hr 41 min 47 sec) 
Heartbeat CPU 0 instructions: 69000000 cycles: 489144588 heartbeat IPC: 0.252661 cumulative IPC: 0.121886 (Simulation time: 4 hr 43 min 32 sec) 
Heartbeat CPU 0 instructions: 70000001 cycles: 503516374 heartbeat IPC: 0.0695808 cumulative IPC: 0.120378 (Simulation time: 4 hr 46 min 7 sec) 
Heartbeat CPU 0 instructions: 71000002 cycles: 512061390 heartbeat IPC: 0.117027 cumulative IPC: 0.120322 (Simulation time: 4 hr 48 min 1 sec) 
Heartbeat CPU 0 instructions: 72000000 cycles: 516747696 heartbeat IPC: 0.213387 cumulative IPC: 0.121174 (Simulation time: 4 hr 49 min 19 sec) 
Heartbeat CPU 0 instructions: 73000002 cycles: 525793335 heartbeat IPC: 0.110551 cumulative IPC: 0.12099 (Simulation time: 4 hr 50 min 51 sec) 
Heartbeat CPU 0 instructions: 74000001 cycles: 537719282 heartbeat IPC: 0.0838507 cumulative IPC: 0.120158 (Simulation time: 4 hr 52 min 18 sec) 
Heartbeat CPU 0 instructions: 75000002 cycles: 542156437 heartbeat IPC: 0.22537 cumulative IPC: 0.121027 (Simulation time: 4 hr 53 min 8 sec) 
Heartbeat CPU 0 instructions: 76000000 cycles: 548064596 heartbeat IPC: 0.169257 cumulative IPC: 0.121552 (Simulation time: 4 hr 53 min 59 sec) 
Heartbeat CPU 0 instructions: 77000001 cycles: 564412899 heartbeat IPC: 0.0611685 cumulative IPC: 0.119787 (Simulation time: 4 hr 55 min 9 sec) 
Heartbeat CPU 0 instructions: 78000002 cycles: 569175785 heartbeat IPC: 0.209957 cumulative IPC: 0.120548 (Simulation time: 4 hr 55 min 49 sec) 
Heartbeat CPU 0 instructions: 79000001 cycles: 573380095 heartbeat IPC: 0.237851 cumulative IPC: 0.121416 (Simulation time: 4 hr 56 min 23 sec) 
Heartbeat CPU 0 instructions: 80000000 cycles: 586814481 heartbeat IPC: 0.0744358 cumulative IPC: 0.120331 (Simulation time: 4 hr 57 min 5 sec) 
Heartbeat CPU 0 instructions: 81000000 cycles: 594298576 heartbeat IPC: 0.133617 cumulative IPC: 0.1205 (Simulation time: 4 hr 57 min 38 sec) 
Heartbeat CPU 0 instructions: 82000000 cycles: 599040910 heartbeat IPC: 0.210867 cumulative IPC: 0.121222 (Simulation time: 4 hr 58 min 3 sec) 
Heartbeat CPU 0 instructions: 83000001 cycles: 608864199 heartbeat IPC: 0.101799 cumulative IPC: 0.120906 (Simulation time: 4 hr 58 min 31 sec) 
Heartbeat CPU 0 instructions: 84000000 cycles: 620394049 heartbeat IPC: 0.0867313 cumulative IPC: 0.120265 (Simulation time: 4 hr 58 min 59 sec) 
Heartbeat CPU 0 instructions: 85000001 cycles: 624554258 heartbeat IPC: 0.240373 cumulative IPC: 0.121072 (Simulation time: 4 hr 59 min 16 sec) 
Heartbeat CPU 0 instructions: 86000000 cycles: 632387311 heartbeat IPC: 0.127664 cumulative IPC: 0.121154 (Simulation time: 4 hr 59 min 36 sec) 
Heartbeat CPU 0 instructions: 87000000 cycles: 647376586 heartbeat IPC: 0.0667144 cumulative IPC: 0.119884 (Simulation time: 5 hr 0 min 2 sec) 
Heartbeat CPU 0 instructions: 88000000 cycles: 653446606 heartbeat IPC: 0.164744 cumulative IPC: 0.120304 (Simulation time: 5 hr 0 min 17 sec) 
Heartbeat CPU 0 instructions: 89000000 cycles: 657515546 heartbeat IPC: 0.245764 cumulative IPC: 0.121086 (Simulation time: 5 hr 0 min 28 sec) 
Heartbeat CPU 0 instructions: 90000003 cycles: 669532208 heartbeat IPC: 0.083218 cumulative IPC: 0.120401 (Simulation time: 5 hr 0 min 43 sec) 
Heartbeat CPU 0 instructions: 91000000 cycles: 678427608 heartbeat IPC: 0.112417 cumulative IPC: 0.120296 (Simulation time: 5 hr 0 min 56 sec) 
Heartbeat CPU 0 instructions: 92000000 cycles: 682552035 heartbeat IPC: 0.242458 cumulative IPC: 0.121039 (Simulation time: 5 hr 1 min 5 sec) 
Heartbeat CPU 0 instructions: 93000002 cycles: 691474284 heartbeat IPC: 0.11208 cumulative IPC: 0.120923 (Simulation time: 5 hr 1 min 16 sec) 
Heartbeat CPU 0 instructions: 94000002 cycles: 703301018 heartbeat IPC: 0.0845542 cumulative IPC: 0.120307 (Simulation time: 5 hr 1 min 28 sec) 
Heartbeat CPU 0 instructions: 95000000 cycles: 709007291 heartbeat IPC: 0.175245 cumulative IPC: 0.120752 (Simulation time: 5 hr 1 min 35 sec) 
Heartbeat CPU 0 instructions: 96000000 cycles: 714463814 heartbeat IPC: 0.183267 cumulative IPC: 0.121233 (Simulation time: 5 hr 1 min 43 sec) 
Heartbeat CPU 0 instructions: 97000000 cycles: 729899436 heartbeat IPC: 0.0647852 cumulative IPC: 0.120031 (Simulation time: 5 hr 1 min 53 sec) 
Heartbeat CPU 0 instructions: 98000002 cycles: 734537627 heartbeat IPC: 0.215602 cumulative IPC: 0.120639 (Simulation time: 5 hr 2 min 1 sec) 
Heartbeat CPU 0 instructions: 99000002 cycles: 739038102 heartbeat IPC: 0.222199 cumulative IPC: 0.121261 (Simulation time: 5 hr 2 min 8 sec) 
Heartbeat CPU 0 instructions: 100000000 cycles: 753504151 heartbeat IPC: 0.0691272 cumulative IPC: 0.120254 (Simulation time: 5 hr 2 min 17 sec) 
Heartbeat CPU 0 instructions: 101000000 cycles: 760219067 heartbeat IPC: 0.148922 cumulative IPC: 0.120509 (Simulation time: 5 hr 2 min 23 sec) 
Heartbeat CPU 0 instructions: 102000003 cycles: 764317955 heartbeat IPC: 0.243969 cumulative IPC: 0.121175 (Simulation time: 5 hr 2 min 29 sec) 
Heartbeat CPU 0 instructions: 103000003 cycles: 776481066 heartbeat IPC: 0.0822158 cumulative IPC: 0.120561 (Simulation time: 5 hr 2 min 37 sec) 
Heartbeat CPU 0 instructions: 104000000 cycles: 788075551 heartbeat IPC: 0.0862476 cumulative IPC: 0.120053 (Simulation time: 5 hr 2 min 45 sec) 
Heartbeat CPU 0 instructions: 105000000 cycles: 792731985 heartbeat IPC: 0.214757 cumulative IPC: 0.120613 (Simulation time: 5 hr 2 min 52 sec) 
Heartbeat CPU 0 instructions: 106000000 cycles: 796784238 heartbeat IPC: 0.246776 cumulative IPC: 0.121258 (Simulation time: 5 hr 2 min 58 sec) 
Heartbeat CPU 0 instructions: 107000002 cycles: 812666059 heartbeat IPC: 0.0629652 cumulative IPC: 0.120112 (Simulation time: 5 hr 3 min 8 sec) 
Heartbeat CPU 0 instructions: 108000000 cycles: 817977011 heartbeat IPC: 0.18829 cumulative IPC: 0.120558 (Simulation time: 5 hr 3 min 14 sec) 
Heartbeat CPU 0 instructions: 109000001 cycles: 822189891 heartbeat IPC: 0.237368 cumulative IPC: 0.12116 (Simulation time: 5 hr 3 min 19 sec) 
Heartbeat CPU 0 instructions: 110000002 cycles: 832074390 heartbeat IPC: 0.101169 cumulative IPC: 0.120921 (Simulation time: 5 hr 3 min 26 sec) 
Finished CPU 0 instructions: 100000001 cycles: 826987307 cummulative IPC: 0.120921 (Simulation time: 5 hr 3 min 26 sec) 

ChampSim completed all CPUs

Region of Interest Statistics

CPU 0 cummulative IPC: 0.120921 instructions: 100000001 cycles: 826987307
LLC TOTAL     ACCESS:   18772994  HIT:    8432059  MISS:   10340935
LLC LOAD      ACCESS:    8473472  HIT:    4337522  MISS:    4135950
LLC RFO       ACCESS:     206457  HIT:      63799  MISS:     142658
LLC PREFETCH  ACCESS:    7985233  HIT:    2271142  MISS:    5714091
LLC WRITEBACK ACCESS:    2107832  HIT:    1759596  MISS:     348236
Insertion Distribution: 
	LOAD 919415 0 1457657 2091767 
	RFO 71080 0 65510 19474 
	PREF 0 1630272 2187370 2490452 
	WRITEBACK 0 0 0 381558 
Total Prefetch Downgrades: 1404410
