
*** ChampSim Multicore Out-of-Order Simulator ***

Warmup Instructions: 10000000
Simulation Instructions: 100000000
Configuration: 2
Number of CPUs: 1
LLC sets: 2048
LLC ways: 16
Off-chip DRAM Channels: 1 Width: 64-bit Data Rate: 1600 MT/s

CPU 0 runs /datasets/cs240c-wi22-a00-public/data/Assignment2-gz/leslie3d_1186B.trace.gz
CPU 0 L1D next line prefetcher
CPU 0 L2C IP-based stride prefetcher
Initialize SRRIP state
Heartbeat CPU 0 instructions: 1000002 cycles: 564509 heartbeat IPC: 1.77145 cumulative IPC: 1.77145 (Simulation time: 0 hr 2 min 44 sec) 
Heartbeat CPU 0 instructions: 2000000 cycles: 1215817 heartbeat IPC: 1.53537 cumulative IPC: 1.64498 (Simulation time: 0 hr 5 min 38 sec) 
Heartbeat CPU 0 instructions: 3000000 cycles: 1867540 heartbeat IPC: 1.53439 cumulative IPC: 1.60639 (Simulation time: 0 hr 8 min 24 sec) 
Heartbeat CPU 0 instructions: 4000000 cycles: 2473071 heartbeat IPC: 1.65144 cumulative IPC: 1.61742 (Simulation time: 0 hr 10 min 55 sec) 
Heartbeat CPU 0 instructions: 5000000 cycles: 3083393 heartbeat IPC: 1.63848 cumulative IPC: 1.62159 (Simulation time: 0 hr 13 min 39 sec) 
Heartbeat CPU 0 instructions: 6000000 cycles: 3735113 heartbeat IPC: 1.5344 cumulative IPC: 1.60638 (Simulation time: 0 hr 16 min 37 sec) 
Heartbeat CPU 0 instructions: 7000001 cycles: 4386324 heartbeat IPC: 1.5356 cumulative IPC: 1.59587 (Simulation time: 0 hr 19 min 26 sec) 
Heartbeat CPU 0 instructions: 8000000 cycles: 4950917 heartbeat IPC: 1.77119 cumulative IPC: 1.61586 (Simulation time: 0 hr 22 min 21 sec) 
Heartbeat CPU 0 instructions: 9000003 cycles: 5602198 heartbeat IPC: 1.53544 cumulative IPC: 1.60651 (Simulation time: 0 hr 25 min 5 sec) 
Heartbeat CPU 0 instructions: 10000001 cycles: 6253345 heartbeat IPC: 1.53575 cumulative IPC: 1.59914 (Simulation time: 0 hr 27 min 55 sec) 

Warmup complete CPU 0 instructions: 10000001 cycles: 6253345 (Simulation time: 0 hr 27 min 55 sec) 

Heartbeat CPU 0 instructions: 11000001 cycles: 7688811 heartbeat IPC: 0.696638 cumulative IPC: 0.696638 (Simulation time: 0 hr 30 min 46 sec) 
Heartbeat CPU 0 instructions: 12000000 cycles: 8938207 heartbeat IPC: 0.800386 cumulative IPC: 0.744917 (Simulation time: 0 hr 33 min 36 sec) 
Heartbeat CPU 0 instructions: 13000000 cycles: 10152208 heartbeat IPC: 0.823723 cumulative IPC: 0.769455 (Simulation time: 0 hr 36 min 21 sec) 
Heartbeat CPU 0 instructions: 14000000 cycles: 11396589 heartbeat IPC: 0.803612 cumulative IPC: 0.777719 (Simulation time: 0 hr 39 min 0 sec) 
Heartbeat CPU 0 instructions: 15000002 cycles: 12830325 heartbeat IPC: 0.69748 cumulative IPC: 0.760228 (Simulation time: 0 hr 41 min 45 sec) 
Heartbeat CPU 0 instructions: 16000000 cycles: 14045742 heartbeat IPC: 0.822761 cumulative IPC: 0.769981 (Simulation time: 0 hr 44 min 38 sec) 
Heartbeat CPU 0 instructions: 17000000 cycles: 15254626 heartbeat IPC: 0.827209 cumulative IPC: 0.777667 (Simulation time: 0 hr 47 min 29 sec) 
Heartbeat CPU 0 instructions: 18000001 cycles: 16682514 heartbeat IPC: 0.700336 cumulative IPC: 0.767079 (Simulation time: 0 hr 50 min 9 sec) 
Heartbeat CPU 0 instructions: 19000003 cycles: 17910865 heartbeat IPC: 0.814101 cumulative IPC: 0.772034 (Simulation time: 0 hr 52 min 55 sec) 
Heartbeat CPU 0 instructions: 20000000 cycles: 19121434 heartbeat IPC: 0.826055 cumulative IPC: 0.777116 (Simulation time: 0 hr 55 min 38 sec) 
Heartbeat CPU 0 instructions: 21000003 cycles: 20428081 heartbeat IPC: 0.76532 cumulative IPC: 0.776029 (Simulation time: 0 hr 58 min 14 sec) 
Heartbeat CPU 0 instructions: 22000003 cycles: 21754129 heartbeat IPC: 0.754121 cumulative IPC: 0.774155 (Simulation time: 1 hr 0 min 49 sec) 
Heartbeat CPU 0 instructions: 23000002 cycles: 22949643 heartbeat IPC: 0.836459 cumulative IPC: 0.778616 (Simulation time: 1 hr 3 min 34 sec) 
Heartbeat CPU 0 instructions: 24000000 cycles: 24137670 heartbeat IPC: 0.84173 cumulative IPC: 0.782808 (Simulation time: 1 hr 6 min 24 sec) 
Heartbeat CPU 0 instructions: 25000000 cycles: 25556626 heartbeat IPC: 0.704744 cumulative IPC: 0.77707 (Simulation time: 1 hr 9 min 3 sec) 
Heartbeat CPU 0 instructions: 26000000 cycles: 26767851 heartbeat IPC: 0.82561 cumulative IPC: 0.779936 (Simulation time: 1 hr 12 min 4 sec) 
Heartbeat CPU 0 instructions: 27000000 cycles: 27977423 heartbeat IPC: 0.826739 cumulative IPC: 0.782542 (Simulation time: 1 hr 14 min 39 sec) 
Heartbeat CPU 0 instructions: 28000000 cycles: 29382917 heartbeat IPC: 0.711494 cumulative IPC: 0.778224 (Simulation time: 1 hr 17 min 25 sec) 
Heartbeat CPU 0 instructions: 29000002 cycles: 30603292 heartbeat IPC: 0.819422 cumulative IPC: 0.780289 (Simulation time: 1 hr 20 min 8 sec) 
Heartbeat CPU 0 instructions: 30000002 cycles: 31805784 heartbeat IPC: 0.831606 cumulative IPC: 0.782704 (Simulation time: 1 hr 22 min 55 sec) 
Heartbeat CPU 0 instructions: 31000002 cycles: 33036689 heartbeat IPC: 0.81241 cumulative IPC: 0.784069 (Simulation time: 1 hr 25 min 33 sec) 
Heartbeat CPU 0 instructions: 32000000 cycles: 34409107 heartbeat IPC: 0.72864 cumulative IPC: 0.781368 (Simulation time: 1 hr 28 min 14 sec) 
Heartbeat CPU 0 instructions: 33000000 cycles: 35596840 heartbeat IPC: 0.84194 cumulative IPC: 0.783819 (Simulation time: 1 hr 30 min 55 sec) 
Heartbeat CPU 0 instructions: 34000000 cycles: 36794750 heartbeat IPC: 0.834787 cumulative IPC: 0.785818 (Simulation time: 1 hr 33 min 42 sec) 
Heartbeat CPU 0 instructions: 35000002 cycles: 38206477 heartbeat IPC: 0.708354 cumulative IPC: 0.782396 (Simulation time: 1 hr 36 min 25 sec) 
Heartbeat CPU 0 instructions: 36000000 cycles: 39425892 heartbeat IPC: 0.820064 cumulative IPC: 0.783781 (Simulation time: 1 hr 39 min 12 sec) 
Heartbeat CPU 0 instructions: 37000003 cycles: 40641407 heartbeat IPC: 0.822699 cumulative IPC: 0.785156 (Simulation time: 1 hr 41 min 54 sec) 
Heartbeat CPU 0 instructions: 38000003 cycles: 41968081 heartbeat IPC: 0.753765 cumulative IPC: 0.78399 (Simulation time: 1 hr 44 min 36 sec) 
Heartbeat CPU 0 instructions: 39000001 cycles: 43256190 heartbeat IPC: 0.77633 cumulative IPC: 0.783724 (Simulation time: 1 hr 47 min 8 sec) 
Heartbeat CPU 0 instructions: 40000000 cycles: 44465146 heartbeat IPC: 0.827159 cumulative IPC: 0.785098 (Simulation time: 1 hr 49 min 54 sec) 
Heartbeat CPU 0 instructions: 41000000 cycles: 45656835 heartbeat IPC: 0.839145 cumulative IPC: 0.786732 (Simulation time: 1 hr 52 min 41 sec) 
Heartbeat CPU 0 instructions: 42000000 cycles: 47069492 heartbeat IPC: 0.707886 cumulative IPC: 0.784003 (Simulation time: 1 hr 55 min 26 sec) 
Heartbeat CPU 0 instructions: 43000002 cycles: 48250377 heartbeat IPC: 0.846824 cumulative IPC: 0.78577 (Simulation time: 1 hr 58 min 14 sec) 
Heartbeat CPU 0 instructions: 44000000 cycles: 49450973 heartbeat IPC: 0.832918 cumulative IPC: 0.78708 (Simulation time: 2 hr 1 min 3 sec) 
Heartbeat CPU 0 instructions: 45000001 cycles: 50925099 heartbeat IPC: 0.678369 cumulative IPC: 0.783493 (Simulation time: 2 hr 3 min 45 sec) 
Heartbeat CPU 0 instructions: 46000001 cycles: 52582186 heartbeat IPC: 0.603469 cumulative IPC: 0.777054 (Simulation time: 2 hr 6 min 31 sec) 
Heartbeat CPU 0 instructions: 47000002 cycles: 54360528 heartbeat IPC: 0.562322 cumulative IPC: 0.769116 (Simulation time: 2 hr 9 min 20 sec) 
Heartbeat CPU 0 instructions: 48000000 cycles: 56175718 heartbeat IPC: 0.550905 cumulative IPC: 0.761182 (Simulation time: 2 hr 12 min 18 sec) 
Heartbeat CPU 0 instructions: 49000002 cycles: 58015230 heartbeat IPC: 0.543624 cumulative IPC: 0.75345 (Simulation time: 2 hr 15 min 9 sec) 
Heartbeat CPU 0 instructions: 50000002 cycles: 59736752 heartbeat IPC: 0.580881 cumulative IPC: 0.747896 (Simulation time: 2 hr 17 min 55 sec) 
Heartbeat CPU 0 instructions: 51000000 cycles: 61433268 heartbeat IPC: 0.589442 cumulative IPC: 0.743024 (Simulation time: 2 hr 20 min 39 sec) 
Heartbeat CPU 0 instructions: 52000000 cycles: 63151978 heartbeat IPC: 0.581832 cumulative IPC: 0.738155 (Simulation time: 2 hr 23 min 31 sec) 
Heartbeat CPU 0 instructions: 53000003 cycles: 64892235 heartbeat IPC: 0.574629 cumulative IPC: 0.733302 (Simulation time: 2 hr 26 min 24 sec) 
Heartbeat CPU 0 instructions: 54000003 cycles: 66574741 heartbeat IPC: 0.594352 cumulative IPC: 0.729426 (Simulation time: 2 hr 29 min 13 sec) 
Heartbeat CPU 0 instructions: 55000001 cycles: 68480899 heartbeat IPC: 0.524614 cumulative IPC: 0.723152 (Simulation time: 2 hr 32 min 7 sec) 
Heartbeat CPU 0 instructions: 56000000 cycles: 70864871 heartbeat IPC: 0.419468 cumulative IPC: 0.711947 (Simulation time: 2 hr 35 min 9 sec) 
Heartbeat CPU 0 instructions: 57000001 cycles: 73201092 heartbeat IPC: 0.428042 cumulative IPC: 0.70204 (Simulation time: 2 hr 38 min 12 sec) 
Heartbeat CPU 0 instructions: 58000001 cycles: 75622171 heartbeat IPC: 0.413039 cumulative IPC: 0.691953 (Simulation time: 2 hr 41 min 21 sec) 
Heartbeat CPU 0 instructions: 59000003 cycles: 78004153 heartbeat IPC: 0.419819 cumulative IPC: 0.682919 (Simulation time: 2 hr 45 min 9 sec) 
Heartbeat CPU 0 instructions: 60000000 cycles: 80351014 heartbeat IPC: 0.4261 cumulative IPC: 0.674785 (Simulation time: 2 hr 49 min 21 sec) 
Heartbeat CPU 0 instructions: 61000003 cycles: 82672826 heartbeat IPC: 0.430699 cumulative IPC: 0.667369 (Simulation time: 2 hr 53 min 39 sec) 
Heartbeat CPU 0 instructions: 62000001 cycles: 84987921 heartbeat IPC: 0.431947 cumulative IPC: 0.660447 (Simulation time: 2 hr 57 min 36 sec) 
Heartbeat CPU 0 instructions: 63000000 cycles: 86959704 heartbeat IPC: 0.507155 cumulative IPC: 0.656702 (Simulation time: 3 hr 1 min 12 sec) 
Heartbeat CPU 0 instructions: 64000000 cycles: 88183986 heartbeat IPC: 0.816805 cumulative IPC: 0.659094 (Simulation time: 3 hr 4 min 8 sec) 
Heartbeat CPU 0 instructions: 65000000 cycles: 89439134 heartbeat IPC: 0.796719 cumulative IPC: 0.661171 (Simulation time: 3 hr 7 min 8 sec) 
Heartbeat CPU 0 instructions: 66000002 cycles: 90683678 heartbeat IPC: 0.803509 cumulative IPC: 0.663269 (Simulation time: 3 hr 10 min 5 sec) 
Heartbeat CPU 0 instructions: 67000001 cycles: 91928911 heartbeat IPC: 0.803062 cumulative IPC: 0.665301 (Simulation time: 3 hr 13 min 20 sec) 
Heartbeat CPU 0 instructions: 68000000 cycles: 93245394 heartbeat IPC: 0.759599 cumulative IPC: 0.666728 (Simulation time: 3 hr 16 min 31 sec) 
Heartbeat CPU 0 instructions: 69000000 cycles: 94490303 heartbeat IPC: 0.803272 cumulative IPC: 0.668654 (Simulation time: 3 hr 19 min 48 sec) 
Heartbeat CPU 0 instructions: 70000000 cycles: 95781875 heartbeat IPC: 0.77425 cumulative IPC: 0.670177 (Simulation time: 3 hr 22 min 58 sec) 
Heartbeat CPU 0 instructions: 71000000 cycles: 97036592 heartbeat IPC: 0.796992 cumulative IPC: 0.67193 (Simulation time: 3 hr 25 min 58 sec) 
Heartbeat CPU 0 instructions: 72000000 cycles: 98313827 heartbeat IPC: 0.782941 cumulative IPC: 0.67347 (Simulation time: 3 hr 28 min 58 sec) 
Heartbeat CPU 0 instructions: 73000000 cycles: 99590258 heartbeat IPC: 0.783434 cumulative IPC: 0.674974 (Simulation time: 3 hr 31 min 57 sec) 
Heartbeat CPU 0 instructions: 74000000 cycles: 100846518 heartbeat IPC: 0.796014 cumulative IPC: 0.676582 (Simulation time: 3 hr 34 min 52 sec) 
Heartbeat CPU 0 instructions: 75000003 cycles: 102149620 heartbeat IPC: 0.767402 cumulative IPC: 0.677816 (Simulation time: 3 hr 38 min 8 sec) 
Heartbeat CPU 0 instructions: 76000000 cycles: 103406331 heartbeat IPC: 0.795726 cumulative IPC: 0.679341 (Simulation time: 3 hr 41 min 6 sec) 
Heartbeat CPU 0 instructions: 77000000 cycles: 104699259 heartbeat IPC: 0.773438 cumulative IPC: 0.680577 (Simulation time: 3 hr 44 min 2 sec) 
Heartbeat CPU 0 instructions: 78000001 cycles: 105968443 heartbeat IPC: 0.787909 cumulative IPC: 0.681943 (Simulation time: 3 hr 47 min 15 sec) 
Heartbeat CPU 0 instructions: 79000001 cycles: 107255442 heartbeat IPC: 0.777001 cumulative IPC: 0.683154 (Simulation time: 3 hr 50 min 19 sec) 
Heartbeat CPU 0 instructions: 80000000 cycles: 108542732 heartbeat IPC: 0.776825 cumulative IPC: 0.684333 (Simulation time: 3 hr 53 min 11 sec) 
Heartbeat CPU 0 instructions: 81000000 cycles: 109797951 heartbeat IPC: 0.796674 cumulative IPC: 0.685695 (Simulation time: 3 hr 56 min 9 sec) 
Heartbeat CPU 0 instructions: 82000003 cycles: 111097954 heartbeat IPC: 0.769231 cumulative IPC: 0.686731 (Simulation time: 3 hr 59 min 4 sec) 
Heartbeat CPU 0 instructions: 83000001 cycles: 112363282 heartbeat IPC: 0.790307 cumulative IPC: 0.687966 (Simulation time: 4 hr 1 min 57 sec) 
Heartbeat CPU 0 instructions: 84000000 cycles: 113642522 heartbeat IPC: 0.781713 cumulative IPC: 0.689082 (Simulation time: 4 hr 4 min 54 sec) 
Heartbeat CPU 0 instructions: 85000001 cycles: 114905774 heartbeat IPC: 0.791609 cumulative IPC: 0.690274 (Simulation time: 4 hr 7 min 44 sec) 
Heartbeat CPU 0 instructions: 86000003 cycles: 116187552 heartbeat IPC: 0.780168 cumulative IPC: 0.691323 (Simulation time: 4 hr 10 min 35 sec) 
Heartbeat CPU 0 instructions: 87000001 cycles: 117449055 heartbeat IPC: 0.792704 cumulative IPC: 0.692473 (Simulation time: 4 hr 13 min 11 sec) 
Heartbeat CPU 0 instructions: 88000000 cycles: 118715664 heartbeat IPC: 0.789509 cumulative IPC: 0.693566 (Simulation time: 4 hr 15 min 43 sec) 
Heartbeat CPU 0 instructions: 89000001 cycles: 120001154 heartbeat IPC: 0.777914 cumulative IPC: 0.694519 (Simulation time: 4 hr 18 min 14 sec) 
Heartbeat CPU 0 instructions: 90000002 cycles: 121265747 heartbeat IPC: 0.790769 cumulative IPC: 0.695577 (Simulation time: 4 hr 20 min 47 sec) 
Heartbeat CPU 0 instructions: 91000000 cycles: 122550113 heartbeat IPC: 0.778593 cumulative IPC: 0.696494 (Simulation time: 4 hr 23 min 13 sec) 
Heartbeat CPU 0 instructions: 92000000 cycles: 123800660 heartbeat IPC: 0.79965 cumulative IPC: 0.697591 (Simulation time: 4 hr 25 min 28 sec) 
Heartbeat CPU 0 instructions: 93000002 cycles: 125102459 heartbeat IPC: 0.768169 cumulative IPC: 0.698364 (Simulation time: 4 hr 27 min 30 sec) 
Heartbeat CPU 0 instructions: 94000000 cycles: 126351439 heartbeat IPC: 0.800652 cumulative IPC: 0.699428 (Simulation time: 4 hr 29 min 21 sec) 
Heartbeat CPU 0 instructions: 95000003 cycles: 127603368 heartbeat IPC: 0.79877 cumulative IPC: 0.700453 (Simulation time: 4 hr 31 min 13 sec) 
Heartbeat CPU 0 instructions: 96000000 cycles: 128894866 heartbeat IPC: 0.774292 cumulative IPC: 0.701231 (Simulation time: 4 hr 32 min 59 sec) 
Heartbeat CPU 0 instructions: 97000001 cycles: 130144138 heartbeat IPC: 0.800467 cumulative IPC: 0.702231 (Simulation time: 4 hr 34 min 39 sec) 
Heartbeat CPU 0 instructions: 98000002 cycles: 131443900 heartbeat IPC: 0.769372 cumulative IPC: 0.702928 (Simulation time: 4 hr 36 min 19 sec) 
Heartbeat CPU 0 instructions: 99000000 cycles: 132691095 heartbeat IPC: 0.801798 cumulative IPC: 0.703904 (Simulation time: 4 hr 37 min 57 sec) 
Heartbeat CPU 0 instructions: 100000000 cycles: 133987060 heartbeat IPC: 0.771626 cumulative IPC: 0.704591 (Simulation time: 4 hr 39 min 29 sec) 
Heartbeat CPU 0 instructions: 101000000 cycles: 135240456 heartbeat IPC: 0.797832 cumulative IPC: 0.705497 (Simulation time: 4 hr 40 min 58 sec) 
Heartbeat CPU 0 instructions: 102000001 cycles: 136488825 heartbeat IPC: 0.801046 cumulative IPC: 0.706413 (Simulation time: 4 hr 42 min 22 sec) 
Heartbeat CPU 0 instructions: 103000002 cycles: 137776653 heartbeat IPC: 0.776502 cumulative IPC: 0.707099 (Simulation time: 4 hr 43 min 46 sec) 
Heartbeat CPU 0 instructions: 104000000 cycles: 139024249 heartbeat IPC: 0.80154 cumulative IPC: 0.707986 (Simulation time: 4 hr 45 min 0 sec) 
Heartbeat CPU 0 instructions: 105000001 cycles: 140323619 heartbeat IPC: 0.769605 cumulative IPC: 0.708584 (Simulation time: 4 hr 46 min 12 sec) 
Heartbeat CPU 0 instructions: 106000002 cycles: 141577703 heartbeat IPC: 0.797396 cumulative IPC: 0.709407 (Simulation time: 4 hr 47 min 21 sec) 
Heartbeat CPU 0 instructions: 107000000 cycles: 142868833 heartbeat IPC: 0.774514 cumulative IPC: 0.710022 (Simulation time: 4 hr 48 min 29 sec) 
Heartbeat CPU 0 instructions: 108000000 cycles: 144137266 heartbeat IPC: 0.788374 cumulative IPC: 0.710743 (Simulation time: 4 hr 49 min 33 sec) 
Heartbeat CPU 0 instructions: 109000003 cycles: 145397434 heartbeat IPC: 0.793547 cumulative IPC: 0.711493 (Simulation time: 4 hr 50 min 35 sec) 
Heartbeat CPU 0 instructions: 110000001 cycles: 146698639 heartbeat IPC: 0.768517 cumulative IPC: 0.712021 (Simulation time: 4 hr 51 min 28 sec) 
Finished CPU 0 instructions: 100000000 cycles: 140445294 cummulative IPC: 0.712021 (Simulation time: 4 hr 51 min 28 sec) 

ChampSim completed all CPUs

Region of Interest Statistics

CPU 0 cummulative IPC: 0.712021 instructions: 100000000 cycles: 140445294
LLC TOTAL     ACCESS:    3757595  HIT:    1410039  MISS:    2347556
LLC LOAD      ACCESS:     405328  HIT:     143285  MISS:     262043
LLC RFO       ACCESS:     463747  HIT:     173837  MISS:     289910
LLC PREFETCH  ACCESS:    2139340  HIT:     630237  MISS:    1509103
LLC WRITEBACK ACCESS:     749180  HIT:     462680  MISS:     286500
Insertion Distribution: 
	LOAD 38880 0 85929 140808 
	RFO 1497 0 94779 196317 
	PREF 0 78320 623339 984949 
	WRITEBACK 0 0 0 305201 
Total Prefetch Downgrades: 89372
