
*** ChampSim Multicore Out-of-Order Simulator ***

Warmup Instructions: 10000000
Simulation Instructions: 100000000
Configuration: 2
Number of CPUs: 1
LLC sets: 2048
LLC ways: 16
Off-chip DRAM Channels: 1 Width: 64-bit Data Rate: 1600 MT/s

CPU 0 runs /datasets/cs240c-wi22-a00-public/data/Assignment2-gz/sphinx3_2520B.trace.gz
CPU 0 L1D next line prefetcher
CPU 0 L2C IP-based stride prefetcher
Initialize SRRIP state
Heartbeat CPU 0 instructions: 1000003 cycles: 338965 heartbeat IPC: 2.95017 cumulative IPC: 2.95017 (Simulation time: 0 hr 2 min 24 sec) 
Heartbeat CPU 0 instructions: 2000000 cycles: 737243 heartbeat IPC: 2.5108 cumulative IPC: 2.71281 (Simulation time: 0 hr 5 min 2 sec) 
Heartbeat CPU 0 instructions: 3000003 cycles: 1185241 heartbeat IPC: 2.23216 cumulative IPC: 2.53113 (Simulation time: 0 hr 7 min 22 sec) 
Heartbeat CPU 0 instructions: 4000000 cycles: 1524269 heartbeat IPC: 2.9496 cumulative IPC: 2.62421 (Simulation time: 0 hr 9 min 35 sec) 
Heartbeat CPU 0 instructions: 5000001 cycles: 1902393 heartbeat IPC: 2.64464 cumulative IPC: 2.62827 (Simulation time: 0 hr 12 min 13 sec) 
Heartbeat CPU 0 instructions: 6000001 cycles: 2367853 heartbeat IPC: 2.14841 cumulative IPC: 2.53394 (Simulation time: 0 hr 14 min 47 sec) 
Heartbeat CPU 0 instructions: 7000001 cycles: 2706795 heartbeat IPC: 2.95036 cumulative IPC: 2.58608 (Simulation time: 0 hr 17 min 9 sec) 
Heartbeat CPU 0 instructions: 8000000 cycles: 3055808 heartbeat IPC: 2.86522 cumulative IPC: 2.61797 (Simulation time: 0 hr 19 min 24 sec) 
Heartbeat CPU 0 instructions: 9000000 cycles: 3509281 heartbeat IPC: 2.2052 cumulative IPC: 2.56463 (Simulation time: 0 hr 21 min 48 sec) 
Heartbeat CPU 0 instructions: 10000000 cycles: 3859433 heartbeat IPC: 2.8559 cumulative IPC: 2.59105 (Simulation time: 0 hr 23 min 56 sec) 

Warmup complete CPU 0 instructions: 10000004 cycles: 3859434 (Simulation time: 0 hr 23 min 56 sec) 

Heartbeat CPU 0 instructions: 11000000 cycles: 4669555 heartbeat IPC: 1.23438 cumulative IPC: 1.23438 (Simulation time: 0 hr 26 min 33 sec) 
Heartbeat CPU 0 instructions: 12000000 cycles: 5571591 heartbeat IPC: 1.1086 cumulative IPC: 1.16811 (Simulation time: 0 hr 29 min 10 sec) 
Heartbeat CPU 0 instructions: 13000002 cycles: 6336884 heartbeat IPC: 1.30669 cumulative IPC: 1.21092 (Simulation time: 0 hr 31 min 44 sec) 
Heartbeat CPU 0 instructions: 14000002 cycles: 7110912 heartbeat IPC: 1.29194 cumulative IPC: 1.23021 (Simulation time: 0 hr 34 min 12 sec) 
Heartbeat CPU 0 instructions: 15000003 cycles: 8021144 heartbeat IPC: 1.09862 cumulative IPC: 1.20143 (Simulation time: 0 hr 36 min 34 sec) 
Heartbeat CPU 0 instructions: 16000000 cycles: 8768268 heartbeat IPC: 1.33846 cumulative IPC: 1.22229 (Simulation time: 0 hr 38 min 59 sec) 
Heartbeat CPU 0 instructions: 17000000 cycles: 9512820 heartbeat IPC: 1.34309 cumulative IPC: 1.2382 (Simulation time: 0 hr 41 min 24 sec) 
Heartbeat CPU 0 instructions: 18000002 cycles: 10400147 heartbeat IPC: 1.12698 cumulative IPC: 1.22311 (Simulation time: 0 hr 43 min 50 sec) 
Heartbeat CPU 0 instructions: 19000001 cycles: 11133204 heartbeat IPC: 1.36415 cumulative IPC: 1.23732 (Simulation time: 0 hr 46 min 9 sec) 
Heartbeat CPU 0 instructions: 20000000 cycles: 11867572 heartbeat IPC: 1.36171 cumulative IPC: 1.24873 (Simulation time: 0 hr 48 min 37 sec) 
Heartbeat CPU 0 instructions: 21000001 cycles: 13039652 heartbeat IPC: 0.853185 cumulative IPC: 1.19823 (Simulation time: 0 hr 51 min 15 sec) 
Heartbeat CPU 0 instructions: 22000002 cycles: 14008815 heartbeat IPC: 1.03182 cumulative IPC: 1.18234 (Simulation time: 0 hr 53 min 34 sec) 
Heartbeat CPU 0 instructions: 23000000 cycles: 14761177 heartbeat IPC: 1.32914 cumulative IPC: 1.19247 (Simulation time: 0 hr 56 min 0 sec) 
Heartbeat CPU 0 instructions: 24000000 cycles: 15497093 heartbeat IPC: 1.35885 cumulative IPC: 1.20299 (Simulation time: 0 hr 58 min 27 sec) 
Heartbeat CPU 0 instructions: 25000003 cycles: 16341890 heartbeat IPC: 1.18372 cumulative IPC: 1.20169 (Simulation time: 1 hr 1 min 7 sec) 
Heartbeat CPU 0 instructions: 26000000 cycles: 17081611 heartbeat IPC: 1.35186 cumulative IPC: 1.21009 (Simulation time: 1 hr 3 min 24 sec) 
Heartbeat CPU 0 instructions: 27000002 cycles: 17818051 heartbeat IPC: 1.35789 cumulative IPC: 1.21789 (Simulation time: 1 hr 5 min 41 sec) 
Heartbeat CPU 0 instructions: 28000000 cycles: 18666876 heartbeat IPC: 1.1781 cumulative IPC: 1.2156 (Simulation time: 1 hr 8 min 11 sec) 
Heartbeat CPU 0 instructions: 29000003 cycles: 19402696 heartbeat IPC: 1.35903 cumulative IPC: 1.22239 (Simulation time: 1 hr 10 min 51 sec) 
Heartbeat CPU 0 instructions: 30000003 cycles: 20134643 heartbeat IPC: 1.36622 cumulative IPC: 1.22886 (Simulation time: 1 hr 13 min 27 sec) 
Heartbeat CPU 0 instructions: 31000001 cycles: 20969295 heartbeat IPC: 1.1981 cumulative IPC: 1.22736 (Simulation time: 1 hr 15 min 58 sec) 
Heartbeat CPU 0 instructions: 32000000 cycles: 21701160 heartbeat IPC: 1.36637 cumulative IPC: 1.23306 (Simulation time: 1 hr 18 min 24 sec) 
Heartbeat CPU 0 instructions: 33000000 cycles: 22431637 heartbeat IPC: 1.36897 cumulative IPC: 1.23841 (Simulation time: 1 hr 20 min 44 sec) 
Heartbeat CPU 0 instructions: 34000000 cycles: 23254041 heartbeat IPC: 1.21595 cumulative IPC: 1.23746 (Simulation time: 1 hr 23 min 9 sec) 
Heartbeat CPU 0 instructions: 35000002 cycles: 23983719 heartbeat IPC: 1.37047 cumulative IPC: 1.24228 (Simulation time: 1 hr 25 min 43 sec) 
Heartbeat CPU 0 instructions: 36000000 cycles: 24711326 heartbeat IPC: 1.37437 cumulative IPC: 1.24689 (Simulation time: 1 hr 28 min 3 sec) 
Heartbeat CPU 0 instructions: 37000000 cycles: 25548532 heartbeat IPC: 1.19445 cumulative IPC: 1.24486 (Simulation time: 1 hr 30 min 23 sec) 
Heartbeat CPU 0 instructions: 38000002 cycles: 26287212 heartbeat IPC: 1.35377 cumulative IPC: 1.24845 (Simulation time: 1 hr 32 min 49 sec) 
Heartbeat CPU 0 instructions: 39000000 cycles: 27053375 heartbeat IPC: 1.3052 cumulative IPC: 1.25033 (Simulation time: 1 hr 35 min 17 sec) 
Heartbeat CPU 0 instructions: 40000000 cycles: 27902503 heartbeat IPC: 1.17768 cumulative IPC: 1.24776 (Simulation time: 1 hr 37 min 36 sec) 
Heartbeat CPU 0 instructions: 41000001 cycles: 28625993 heartbeat IPC: 1.38219 cumulative IPC: 1.25169 (Simulation time: 1 hr 40 min 2 sec) 
Heartbeat CPU 0 instructions: 42000002 cycles: 29386104 heartbeat IPC: 1.3156 cumulative IPC: 1.25359 (Simulation time: 1 hr 42 min 28 sec) 
Heartbeat CPU 0 instructions: 43000001 cycles: 30198073 heartbeat IPC: 1.23157 cumulative IPC: 1.25291 (Simulation time: 1 hr 44 min 47 sec) 
Heartbeat CPU 0 instructions: 44000000 cycles: 30915184 heartbeat IPC: 1.39448 cumulative IPC: 1.25666 (Simulation time: 1 hr 47 min 15 sec) 
Heartbeat CPU 0 instructions: 45000001 cycles: 31667277 heartbeat IPC: 1.32962 cumulative IPC: 1.25864 (Simulation time: 1 hr 49 min 42 sec) 
Heartbeat CPU 0 instructions: 46000001 cycles: 32491995 heartbeat IPC: 1.21254 cumulative IPC: 1.25731 (Simulation time: 1 hr 52 min 10 sec) 
Heartbeat CPU 0 instructions: 47000001 cycles: 33214087 heartbeat IPC: 1.38487 cumulative IPC: 1.26045 (Simulation time: 1 hr 54 min 29 sec) 
Heartbeat CPU 0 instructions: 48000000 cycles: 33973373 heartbeat IPC: 1.31703 cumulative IPC: 1.26187 (Simulation time: 1 hr 57 min 6 sec) 
Heartbeat CPU 0 instructions: 49000002 cycles: 34762391 heartbeat IPC: 1.2674 cumulative IPC: 1.26202 (Simulation time: 1 hr 59 min 34 sec) 
Heartbeat CPU 0 instructions: 50000002 cycles: 35471818 heartbeat IPC: 1.40959 cumulative IPC: 1.26533 (Simulation time: 2 hr 1 min 52 sec) 
Heartbeat CPU 0 instructions: 51000001 cycles: 36239107 heartbeat IPC: 1.30329 cumulative IPC: 1.26623 (Simulation time: 2 hr 4 min 24 sec) 
Heartbeat CPU 0 instructions: 52000000 cycles: 37013694 heartbeat IPC: 1.29101 cumulative IPC: 1.26681 (Simulation time: 2 hr 6 min 54 sec) 
Heartbeat CPU 0 instructions: 53000003 cycles: 37716209 heartbeat IPC: 1.42346 cumulative IPC: 1.27006 (Simulation time: 2 hr 9 min 29 sec) 
Heartbeat CPU 0 instructions: 54000001 cycles: 38465186 heartbeat IPC: 1.33515 cumulative IPC: 1.27146 (Simulation time: 2 hr 11 min 56 sec) 
Heartbeat CPU 0 instructions: 55000002 cycles: 39212705 heartbeat IPC: 1.33776 cumulative IPC: 1.27287 (Simulation time: 2 hr 14 min 16 sec) 
Heartbeat CPU 0 instructions: 56000000 cycles: 39911132 heartbeat IPC: 1.43179 cumulative IPC: 1.27595 (Simulation time: 2 hr 16 min 50 sec) 
Heartbeat CPU 0 instructions: 57000000 cycles: 40788349 heartbeat IPC: 1.13997 cumulative IPC: 1.27272 (Simulation time: 2 hr 19 min 36 sec) 
Heartbeat CPU 0 instructions: 58000002 cycles: 41917916 heartbeat IPC: 0.885297 cumulative IPC: 1.26122 (Simulation time: 2 hr 22 min 7 sec) 
Heartbeat CPU 0 instructions: 59000001 cycles: 42730954 heartbeat IPC: 1.22995 cumulative IPC: 1.26056 (Simulation time: 2 hr 24 min 49 sec) 
Heartbeat CPU 0 instructions: 60000000 cycles: 43439304 heartbeat IPC: 1.41173 cumulative IPC: 1.26327 (Simulation time: 2 hr 27 min 20 sec) 
Heartbeat CPU 0 instructions: 61000001 cycles: 44174180 heartbeat IPC: 1.36078 cumulative IPC: 1.26505 (Simulation time: 2 hr 29 min 53 sec) 
Heartbeat CPU 0 instructions: 62000000 cycles: 44953515 heartbeat IPC: 1.28314 cumulative IPC: 1.26539 (Simulation time: 2 hr 32 min 36 sec) 
Heartbeat CPU 0 instructions: 63000002 cycles: 45647102 heartbeat IPC: 1.44178 cumulative IPC: 1.26832 (Simulation time: 2 hr 35 min 11 sec) 
Heartbeat CPU 0 instructions: 64000000 cycles: 46399882 heartbeat IPC: 1.32841 cumulative IPC: 1.26938 (Simulation time: 2 hr 37 min 38 sec) 
Heartbeat CPU 0 instructions: 65000001 cycles: 47156641 heartbeat IPC: 1.32143 cumulative IPC: 1.27029 (Simulation time: 2 hr 40 min 11 sec) 
Heartbeat CPU 0 instructions: 66000003 cycles: 47857873 heartbeat IPC: 1.42606 cumulative IPC: 1.27277 (Simulation time: 2 hr 42 min 44 sec) 
Heartbeat CPU 0 instructions: 67000003 cycles: 48657415 heartbeat IPC: 1.25072 cumulative IPC: 1.27238 (Simulation time: 2 hr 44 min 58 sec) 
Heartbeat CPU 0 instructions: 68000000 cycles: 49421777 heartbeat IPC: 1.30828 cumulative IPC: 1.27298 (Simulation time: 2 hr 47 min 17 sec) 
Heartbeat CPU 0 instructions: 69000003 cycles: 50127834 heartbeat IPC: 1.41632 cumulative IPC: 1.27517 (Simulation time: 2 hr 49 min 45 sec) 
Heartbeat CPU 0 instructions: 70000000 cycles: 50905758 heartbeat IPC: 1.28547 cumulative IPC: 1.27534 (Simulation time: 2 hr 52 min 19 sec) 
Heartbeat CPU 0 instructions: 71000002 cycles: 51666504 heartbeat IPC: 1.3145 cumulative IPC: 1.27596 (Simulation time: 2 hr 54 min 53 sec) 
Heartbeat CPU 0 instructions: 72000000 cycles: 52364321 heartbeat IPC: 1.43304 cumulative IPC: 1.27822 (Simulation time: 2 hr 57 min 19 sec) 
Heartbeat CPU 0 instructions: 73000003 cycles: 53141522 heartbeat IPC: 1.28667 cumulative IPC: 1.27835 (Simulation time: 2 hr 59 min 44 sec) 
Heartbeat CPU 0 instructions: 74000003 cycles: 53885894 heartbeat IPC: 1.34341 cumulative IPC: 1.27932 (Simulation time: 3 hr 1 min 52 sec) 
Heartbeat CPU 0 instructions: 75000003 cycles: 54589873 heartbeat IPC: 1.4205 cumulative IPC: 1.28128 (Simulation time: 3 hr 4 min 10 sec) 
Heartbeat CPU 0 instructions: 76000000 cycles: 55369365 heartbeat IPC: 1.28288 cumulative IPC: 1.28131 (Simulation time: 3 hr 6 min 28 sec) 
Heartbeat CPU 0 instructions: 77000003 cycles: 56136000 heartbeat IPC: 1.30441 cumulative IPC: 1.28164 (Simulation time: 3 hr 9 min 0 sec) 
Heartbeat CPU 0 instructions: 78000003 cycles: 56835888 heartbeat IPC: 1.4288 cumulative IPC: 1.28359 (Simulation time: 3 hr 11 min 30 sec) 
Heartbeat CPU 0 instructions: 79000003 cycles: 57615415 heartbeat IPC: 1.28283 cumulative IPC: 1.28358 (Simulation time: 3 hr 13 min 53 sec) 
Heartbeat CPU 0 instructions: 80000000 cycles: 58361140 heartbeat IPC: 1.34097 cumulative IPC: 1.28436 (Simulation time: 3 hr 16 min 4 sec) 
Heartbeat CPU 0 instructions: 81000001 cycles: 59058834 heartbeat IPC: 1.43329 cumulative IPC: 1.28625 (Simulation time: 3 hr 18 min 35 sec) 
Heartbeat CPU 0 instructions: 82000002 cycles: 59842944 heartbeat IPC: 1.27533 cumulative IPC: 1.28609 (Simulation time: 3 hr 21 min 14 sec) 
Heartbeat CPU 0 instructions: 83000001 cycles: 60592000 heartbeat IPC: 1.33501 cumulative IPC: 1.28674 (Simulation time: 3 hr 23 min 39 sec) 
Heartbeat CPU 0 instructions: 84000000 cycles: 61294641 heartbeat IPC: 1.4232 cumulative IPC: 1.28841 (Simulation time: 3 hr 26 min 27 sec) 
Heartbeat CPU 0 instructions: 85000001 cycles: 62085200 heartbeat IPC: 1.26493 cumulative IPC: 1.28809 (Simulation time: 3 hr 29 min 10 sec) 
Heartbeat CPU 0 instructions: 86000000 cycles: 62802789 heartbeat IPC: 1.39355 cumulative IPC: 1.28937 (Simulation time: 3 hr 31 min 50 sec) 
Heartbeat CPU 0 instructions: 87000003 cycles: 63503928 heartbeat IPC: 1.42625 cumulative IPC: 1.29098 (Simulation time: 3 hr 34 min 26 sec) 
Heartbeat CPU 0 instructions: 88000000 cycles: 64297743 heartbeat IPC: 1.25974 cumulative IPC: 1.29057 (Simulation time: 3 hr 36 min 57 sec) 
Heartbeat CPU 0 instructions: 89000002 cycles: 64999443 heartbeat IPC: 1.42511 cumulative IPC: 1.29212 (Simulation time: 3 hr 39 min 38 sec) 
Heartbeat CPU 0 instructions: 90000001 cycles: 65698846 heartbeat IPC: 1.42979 cumulative IPC: 1.29367 (Simulation time: 3 hr 42 min 13 sec) 
Heartbeat CPU 0 instructions: 91000001 cycles: 66494915 heartbeat IPC: 1.25617 cumulative IPC: 1.2932 (Simulation time: 3 hr 44 min 43 sec) 
Heartbeat CPU 0 instructions: 92000000 cycles: 67201440 heartbeat IPC: 1.41538 cumulative IPC: 1.29456 (Simulation time: 3 hr 47 min 18 sec) 
Heartbeat CPU 0 instructions: 93000002 cycles: 67878969 heartbeat IPC: 1.47595 cumulative IPC: 1.29648 (Simulation time: 3 hr 49 min 54 sec) 
Heartbeat CPU 0 instructions: 94000000 cycles: 68694096 heartbeat IPC: 1.2268 cumulative IPC: 1.2956 (Simulation time: 3 hr 52 min 16 sec) 
Heartbeat CPU 0 instructions: 95000000 cycles: 69390737 heartbeat IPC: 1.43546 cumulative IPC: 1.29709 (Simulation time: 3 hr 54 min 40 sec) 
Heartbeat CPU 0 instructions: 96000000 cycles: 70099244 heartbeat IPC: 1.41142 cumulative IPC: 1.29831 (Simulation time: 3 hr 57 min 22 sec) 
Heartbeat CPU 0 instructions: 97000002 cycles: 71305279 heartbeat IPC: 0.829165 cumulative IPC: 1.28992 (Simulation time: 3 hr 59 min 51 sec) 
Heartbeat CPU 0 instructions: 98000003 cycles: 72250223 heartbeat IPC: 1.05826 cumulative IPC: 1.28672 (Simulation time: 4 hr 2 min 7 sec) 
Heartbeat CPU 0 instructions: 99000001 cycles: 72992975 heartbeat IPC: 1.34634 cumulative IPC: 1.28736 (Simulation time: 4 hr 4 min 21 sec) 
Heartbeat CPU 0 instructions: 100000000 cycles: 73702016 heartbeat IPC: 1.41035 cumulative IPC: 1.28861 (Simulation time: 4 hr 6 min 37 sec) 
Heartbeat CPU 0 instructions: 101000001 cycles: 75106039 heartbeat IPC: 0.71224 cumulative IPC: 1.27725 (Simulation time: 4 hr 9 min 20 sec) 
Heartbeat CPU 0 instructions: 102000001 cycles: 75919075 heartbeat IPC: 1.22996 cumulative IPC: 1.27672 (Simulation time: 4 hr 11 min 31 sec) 
Heartbeat CPU 0 instructions: 103000001 cycles: 76697403 heartbeat IPC: 1.28481 cumulative IPC: 1.27681 (Simulation time: 4 hr 13 min 41 sec) 
Heartbeat CPU 0 instructions: 104000000 cycles: 77905466 heartbeat IPC: 0.827771 cumulative IPC: 1.26948 (Simulation time: 4 hr 15 min 52 sec) 
Heartbeat CPU 0 instructions: 105000002 cycles: 78738283 heartbeat IPC: 1.20075 cumulative IPC: 1.26872 (Simulation time: 4 hr 17 min 55 sec) 
Heartbeat CPU 0 instructions: 106000000 cycles: 79505213 heartbeat IPC: 1.3039 cumulative IPC: 1.26907 (Simulation time: 4 hr 19 min 55 sec) 
Heartbeat CPU 0 instructions: 107000000 cycles: 80559471 heartbeat IPC: 0.948534 cumulative IPC: 1.26467 (Simulation time: 4 hr 21 min 59 sec) 
Heartbeat CPU 0 instructions: 108000000 cycles: 81552750 heartbeat IPC: 1.00677 cumulative IPC: 1.26137 (Simulation time: 4 hr 23 min 47 sec) 
Heartbeat CPU 0 instructions: 109000003 cycles: 82334417 heartbeat IPC: 1.27932 cumulative IPC: 1.26155 (Simulation time: 4 hr 25 min 31 sec) 
Heartbeat CPU 0 instructions: 110000000 cycles: 83168697 heartbeat IPC: 1.19863 cumulative IPC: 1.26089 (Simulation time: 4 hr 27 min 9 sec) 
Finished CPU 0 instructions: 100000003 cycles: 79309267 cummulative IPC: 1.26089 (Simulation time: 4 hr 27 min 9 sec) 

ChampSim completed all CPUs

Region of Interest Statistics

CPU 0 cummulative IPC: 1.26089 instructions: 100000003 cycles: 79309267
LLC TOTAL     ACCESS:    1445921  HIT:    1014266  MISS:     431655
LLC LOAD      ACCESS:     118961  HIT:      99276  MISS:      19685
LLC RFO       ACCESS:     121991  HIT:     119767  MISS:       2224
LLC PREFETCH  ACCESS:    1076573  HIT:     667362  MISS:     409211
LLC WRITEBACK ACCESS:     128396  HIT:     127861  MISS:        535
Insertion Distribution: 
	LOAD 11019 0 16458 1805 
	RFO 901 0 4392 258 
	PREF 0 2611 215402 274278 
	WRITEBACK 0 0 0 662 
Total Prefetch Downgrades: 5435
