
*** ChampSim Multicore Out-of-Order Simulator ***

Warmup Instructions: 10000000
Simulation Instructions: 100000000
Configuration: 2
Number of CPUs: 1
LLC sets: 2048
LLC ways: 16
Off-chip DRAM Channels: 1 Width: 64-bit Data Rate: 1600 MT/s

CPU 0 runs /datasets/cs240c-wi22-a00-public/data/Assignment2-gz/sphinx3_883B.trace.gz
CPU 0 L1D next line prefetcher
CPU 0 L2C IP-based stride prefetcher
Initialize SRRIP state
Heartbeat CPU 0 instructions: 1000003 cycles: 414388 heartbeat IPC: 2.4132 cumulative IPC: 2.4132 (Simulation time: 0 hr 2 min 23 sec) 
Heartbeat CPU 0 instructions: 2000000 cycles: 823948 heartbeat IPC: 2.44164 cumulative IPC: 2.42734 (Simulation time: 0 hr 4 min 41 sec) 
Heartbeat CPU 0 instructions: 3000003 cycles: 1298792 heartbeat IPC: 2.10596 cumulative IPC: 2.30984 (Simulation time: 0 hr 6 min 49 sec) 
Heartbeat CPU 0 instructions: 4000000 cycles: 1637682 heartbeat IPC: 2.9508 cumulative IPC: 2.44248 (Simulation time: 0 hr 8 min 43 sec) 
Heartbeat CPU 0 instructions: 5000000 cycles: 1992339 heartbeat IPC: 2.81963 cumulative IPC: 2.50961 (Simulation time: 0 hr 10 min 50 sec) 
Heartbeat CPU 0 instructions: 6000003 cycles: 2406766 heartbeat IPC: 2.41298 cumulative IPC: 2.49297 (Simulation time: 0 hr 13 min 2 sec) 
Heartbeat CPU 0 instructions: 7000002 cycles: 2815598 heartbeat IPC: 2.44599 cumulative IPC: 2.48615 (Simulation time: 0 hr 15 min 10 sec) 
Heartbeat CPU 0 instructions: 8000000 cycles: 3291898 heartbeat IPC: 2.09951 cumulative IPC: 2.43021 (Simulation time: 0 hr 17 min 32 sec) 
Heartbeat CPU 0 instructions: 9000001 cycles: 3630895 heartbeat IPC: 2.94988 cumulative IPC: 2.47873 (Simulation time: 0 hr 19 min 32 sec) 
Heartbeat CPU 0 instructions: 10000000 cycles: 3984974 heartbeat IPC: 2.82423 cumulative IPC: 2.50943 (Simulation time: 0 hr 21 min 36 sec) 

Warmup complete CPU 0 instructions: 10000004 cycles: 3984975 (Simulation time: 0 hr 21 min 36 sec) 

Heartbeat CPU 0 instructions: 11000002 cycles: 5679803 heartbeat IPC: 0.590031 cumulative IPC: 0.590029 (Simulation time: 0 hr 24 min 11 sec) 
Heartbeat CPU 0 instructions: 12000000 cycles: 7310203 heartbeat IPC: 0.613345 cumulative IPC: 0.601461 (Simulation time: 0 hr 26 min 34 sec) 
Heartbeat CPU 0 instructions: 13000001 cycles: 8576768 heartbeat IPC: 0.789538 cumulative IPC: 0.653339 (Simulation time: 0 hr 28 min 55 sec) 
Heartbeat CPU 0 instructions: 14000002 cycles: 9483406 heartbeat IPC: 1.10298 cumulative IPC: 0.72748 (Simulation time: 0 hr 30 min 59 sec) 
Heartbeat CPU 0 instructions: 15000000 cycles: 10436280 heartbeat IPC: 1.04945 cumulative IPC: 0.775036 (Simulation time: 0 hr 33 min 11 sec) 
Heartbeat CPU 0 instructions: 16000000 cycles: 12085549 heartbeat IPC: 0.606329 cumulative IPC: 0.740688 (Simulation time: 0 hr 35 min 33 sec) 
Heartbeat CPU 0 instructions: 17000000 cycles: 13680584 heartbeat IPC: 0.626945 cumulative IPC: 0.721976 (Simulation time: 0 hr 38 min 15 sec) 
Heartbeat CPU 0 instructions: 18000002 cycles: 15034502 heartbeat IPC: 0.738599 cumulative IPC: 0.724013 (Simulation time: 0 hr 40 min 47 sec) 
Heartbeat CPU 0 instructions: 19000003 cycles: 15941440 heartbeat IPC: 1.10261 cumulative IPC: 0.752731 (Simulation time: 0 hr 43 min 24 sec) 
Heartbeat CPU 0 instructions: 20000000 cycles: 16810938 heartbeat IPC: 1.15009 cumulative IPC: 0.779668 (Simulation time: 0 hr 45 min 52 sec) 
Heartbeat CPU 0 instructions: 21000000 cycles: 18417146 heartbeat IPC: 0.622584 cumulative IPC: 0.762186 (Simulation time: 0 hr 48 min 47 sec) 
Heartbeat CPU 0 instructions: 22000002 cycles: 20059167 heartbeat IPC: 0.609007 cumulative IPC: 0.746538 (Simulation time: 0 hr 51 min 40 sec) 
Heartbeat CPU 0 instructions: 23000001 cycles: 21636223 heartbeat IPC: 0.634092 cumulative IPC: 0.736492 (Simulation time: 0 hr 54 min 16 sec) 
Heartbeat CPU 0 instructions: 24000000 cycles: 22578820 heartbeat IPC: 1.0609 cumulative IPC: 0.752937 (Simulation time: 0 hr 56 min 39 sec) 
Heartbeat CPU 0 instructions: 25000003 cycles: 23466312 heartbeat IPC: 1.12677 cumulative IPC: 0.769968 (Simulation time: 0 hr 59 min 25 sec) 
Heartbeat CPU 0 instructions: 26000001 cycles: 24747466 heartbeat IPC: 0.780545 cumulative IPC: 0.77062 (Simulation time: 1 hr 1 min 58 sec) 
Heartbeat CPU 0 instructions: 27000001 cycles: 26379744 heartbeat IPC: 0.612641 cumulative IPC: 0.759106 (Simulation time: 1 hr 4 min 50 sec) 
Heartbeat CPU 0 instructions: 28000000 cycles: 27981676 heartbeat IPC: 0.624246 cumulative IPC: 0.750103 (Simulation time: 1 hr 7 min 16 sec) 
Heartbeat CPU 0 instructions: 29000000 cycles: 29048727 heartbeat IPC: 0.937162 cumulative IPC: 0.758067 (Simulation time: 1 hr 9 min 41 sec) 
Heartbeat CPU 0 instructions: 30000002 cycles: 29936056 heartbeat IPC: 1.12698 cumulative IPC: 0.770681 (Simulation time: 1 hr 12 min 17 sec) 
Heartbeat CPU 0 instructions: 31000003 cycles: 31076765 heartbeat IPC: 0.876649 cumulative IPC: 0.775143 (Simulation time: 1 hr 14 min 38 sec) 
Heartbeat CPU 0 instructions: 32000000 cycles: 32697312 heartbeat IPC: 0.617074 cumulative IPC: 0.766221 (Simulation time: 1 hr 17 min 25 sec) 
Heartbeat CPU 0 instructions: 33000000 cycles: 34240777 heartbeat IPC: 0.647893 cumulative IPC: 0.760185 (Simulation time: 1 hr 20 min 2 sec) 
Heartbeat CPU 0 instructions: 34000000 cycles: 35418541 heartbeat IPC: 0.849067 cumulative IPC: 0.763515 (Simulation time: 1 hr 22 min 27 sec) 
Heartbeat CPU 0 instructions: 35000003 cycles: 36301487 heartbeat IPC: 1.13258 cumulative IPC: 0.773598 (Simulation time: 1 hr 24 min 53 sec) 
Heartbeat CPU 0 instructions: 36000000 cycles: 37390374 heartbeat IPC: 0.918366 cumulative IPC: 0.778317 (Simulation time: 1 hr 27 min 19 sec) 
Heartbeat CPU 0 instructions: 37000001 cycles: 39014552 heartbeat IPC: 0.615697 cumulative IPC: 0.770777 (Simulation time: 1 hr 30 min 0 sec) 
Heartbeat CPU 0 instructions: 38000000 cycles: 40556041 heartbeat IPC: 0.648723 cumulative IPC: 0.765633 (Simulation time: 1 hr 32 min 54 sec) 
Heartbeat CPU 0 instructions: 39000003 cycles: 41723396 heartbeat IPC: 0.85664 cumulative IPC: 0.768448 (Simulation time: 1 hr 35 min 21 sec) 
Heartbeat CPU 0 instructions: 40000000 cycles: 42605372 heartbeat IPC: 1.13381 cumulative IPC: 0.776792 (Simulation time: 1 hr 37 min 46 sec) 
Heartbeat CPU 0 instructions: 41000003 cycles: 43673696 heartbeat IPC: 0.936048 cumulative IPC: 0.781078 (Simulation time: 1 hr 40 min 15 sec) 
Heartbeat CPU 0 instructions: 42000000 cycles: 45298307 heartbeat IPC: 0.61553 cumulative IPC: 0.774568 (Simulation time: 1 hr 43 min 8 sec) 
Heartbeat CPU 0 instructions: 43000003 cycles: 46865304 heartbeat IPC: 0.638165 cumulative IPC: 0.769584 (Simulation time: 1 hr 45 min 57 sec) 
Heartbeat CPU 0 instructions: 44000000 cycles: 47954041 heartbeat IPC: 0.918493 cumulative IPC: 0.773271 (Simulation time: 1 hr 48 min 30 sec) 
Heartbeat CPU 0 instructions: 45000002 cycles: 48832167 heartbeat IPC: 1.13879 cumulative IPC: 0.780428 (Simulation time: 1 hr 51 min 8 sec) 
Heartbeat CPU 0 instructions: 46000001 cycles: 49933878 heartbeat IPC: 0.907678 cumulative IPC: 0.783479 (Simulation time: 1 hr 53 min 55 sec) 
Heartbeat CPU 0 instructions: 47000002 cycles: 51538933 heartbeat IPC: 0.623032 cumulative IPC: 0.778063 (Simulation time: 1 hr 56 min 59 sec) 
Heartbeat CPU 0 instructions: 48000000 cycles: 53111058 heartbeat IPC: 0.63608 cumulative IPC: 0.77352 (Simulation time: 1 hr 59 min 43 sec) 
Heartbeat CPU 0 instructions: 49000001 cycles: 54107960 heartbeat IPC: 1.00311 cumulative IPC: 0.778086 (Simulation time: 2 hr 2 min 20 sec) 
Heartbeat CPU 0 instructions: 50000000 cycles: 54987397 heartbeat IPC: 1.13709 cumulative IPC: 0.784276 (Simulation time: 2 hr 4 min 51 sec) 
Heartbeat CPU 0 instructions: 51000003 cycles: 56127506 heartbeat IPC: 0.877112 cumulative IPC: 0.786306 (Simulation time: 2 hr 7 min 23 sec) 
Heartbeat CPU 0 instructions: 52000000 cycles: 57758482 heartbeat IPC: 0.613128 cumulative IPC: 0.781054 (Simulation time: 2 hr 9 min 52 sec) 
Heartbeat CPU 0 instructions: 53000000 cycles: 59528226 heartbeat IPC: 0.565053 cumulative IPC: 0.774171 (Simulation time: 2 hr 12 min 42 sec) 
Heartbeat CPU 0 instructions: 54000003 cycles: 60802830 heartbeat IPC: 0.78456 cumulative IPC: 0.774404 (Simulation time: 2 hr 15 min 21 sec) 
Heartbeat CPU 0 instructions: 55000003 cycles: 61714729 heartbeat IPC: 1.09661 cumulative IPC: 0.779494 (Simulation time: 2 hr 17 min 49 sec) 
Heartbeat CPU 0 instructions: 56000000 cycles: 62633747 heartbeat IPC: 1.08811 cumulative IPC: 0.78433 (Simulation time: 2 hr 20 min 36 sec) 
Heartbeat CPU 0 instructions: 57000002 cycles: 63835212 heartbeat IPC: 0.832319 cumulative IPC: 0.785293 (Simulation time: 2 hr 22 min 54 sec) 
Heartbeat CPU 0 instructions: 58000001 cycles: 64894071 heartbeat IPC: 0.944412 cumulative IPC: 0.78806 (Simulation time: 2 hr 25 min 19 sec) 
Heartbeat CPU 0 instructions: 59000003 cycles: 65757103 heartbeat IPC: 1.15871 cumulative IPC: 0.793238 (Simulation time: 2 hr 27 min 44 sec) 
Heartbeat CPU 0 instructions: 60000000 cycles: 66637647 heartbeat IPC: 1.13566 cumulative IPC: 0.798051 (Simulation time: 2 hr 29 min 59 sec) 
Heartbeat CPU 0 instructions: 61000001 cycles: 67824127 heartbeat IPC: 0.84283 cumulative IPC: 0.798883 (Simulation time: 2 hr 32 min 23 sec) 
Heartbeat CPU 0 instructions: 62000001 cycles: 68664452 heartbeat IPC: 1.19002 cumulative IPC: 0.803964 (Simulation time: 2 hr 34 min 42 sec) 
Heartbeat CPU 0 instructions: 63000003 cycles: 69473361 heartbeat IPC: 1.23624 cumulative IPC: 0.809304 (Simulation time: 2 hr 37 min 16 sec) 
Heartbeat CPU 0 instructions: 64000000 cycles: 70672721 heartbeat IPC: 0.833776 cumulative IPC: 0.809744 (Simulation time: 2 hr 39 min 50 sec) 
Heartbeat CPU 0 instructions: 65000003 cycles: 71534071 heartbeat IPC: 1.16097 cumulative IPC: 0.814223 (Simulation time: 2 hr 42 min 23 sec) 
Heartbeat CPU 0 instructions: 66000002 cycles: 72347615 heartbeat IPC: 1.22919 cumulative IPC: 0.819161 (Simulation time: 2 hr 44 min 57 sec) 
Heartbeat CPU 0 instructions: 67000000 cycles: 73555463 heartbeat IPC: 0.827917 cumulative IPC: 0.819313 (Simulation time: 2 hr 47 min 36 sec) 
Heartbeat CPU 0 instructions: 68000000 cycles: 75196004 heartbeat IPC: 0.609555 cumulative IPC: 0.814481 (Simulation time: 2 hr 50 min 20 sec) 
Heartbeat CPU 0 instructions: 69000003 cycles: 76062322 heartbeat IPC: 1.15431 cumulative IPC: 0.818565 (Simulation time: 2 hr 52 min 45 sec) 
Heartbeat CPU 0 instructions: 70000000 cycles: 76906600 heartbeat IPC: 1.18444 cumulative IPC: 0.822801 (Simulation time: 2 hr 55 min 13 sec) 
Heartbeat CPU 0 instructions: 71000000 cycles: 78017260 heartbeat IPC: 0.900366 cumulative IPC: 0.823965 (Simulation time: 2 hr 57 min 41 sec) 
Heartbeat CPU 0 instructions: 72000000 cycles: 79439976 heartbeat IPC: 0.702881 cumulative IPC: 0.821682 (Simulation time: 3 hr 0 min 9 sec) 
Heartbeat CPU 0 instructions: 73000000 cycles: 80296372 heartbeat IPC: 1.16768 cumulative IPC: 0.825565 (Simulation time: 3 hr 2 min 35 sec) 
Heartbeat CPU 0 instructions: 74000000 cycles: 81136876 heartbeat IPC: 1.18976 cumulative IPC: 0.829532 (Simulation time: 3 hr 5 min 2 sec) 
Heartbeat CPU 0 instructions: 75000000 cycles: 82288268 heartbeat IPC: 0.868514 cumulative IPC: 0.830106 (Simulation time: 3 hr 7 min 35 sec) 
Heartbeat CPU 0 instructions: 76000000 cycles: 83551548 heartbeat IPC: 0.79159 cumulative IPC: 0.829494 (Simulation time: 3 hr 10 min 9 sec) 
Heartbeat CPU 0 instructions: 77000000 cycles: 84433024 heartbeat IPC: 1.13446 cumulative IPC: 0.832836 (Simulation time: 3 hr 12 min 42 sec) 
Heartbeat CPU 0 instructions: 78000000 cycles: 85265634 heartbeat IPC: 1.20104 cumulative IPC: 0.836607 (Simulation time: 3 hr 15 min 9 sec) 
Heartbeat CPU 0 instructions: 79000001 cycles: 86559031 heartbeat IPC: 0.773159 cumulative IPC: 0.835613 (Simulation time: 3 hr 17 min 57 sec) 
Heartbeat CPU 0 instructions: 80000000 cycles: 87704886 heartbeat IPC: 0.87271 cumulative IPC: 0.836121 (Simulation time: 3 hr 20 min 27 sec) 
Heartbeat CPU 0 instructions: 81000000 cycles: 88564949 heartbeat IPC: 1.16271 cumulative IPC: 0.839442 (Simulation time: 3 hr 22 min 55 sec) 
Heartbeat CPU 0 instructions: 82000000 cycles: 89379968 heartbeat IPC: 1.22697 cumulative IPC: 0.843141 (Simulation time: 3 hr 25 min 17 sec) 
Heartbeat CPU 0 instructions: 83000000 cycles: 90774916 heartbeat IPC: 0.716873 cumulative IPC: 0.841111 (Simulation time: 3 hr 27 min 58 sec) 
Heartbeat CPU 0 instructions: 84000000 cycles: 91684794 heartbeat IPC: 1.09905 cumulative IPC: 0.843787 (Simulation time: 3 hr 30 min 25 sec) 
Heartbeat CPU 0 instructions: 85000001 cycles: 92504405 heartbeat IPC: 1.22009 cumulative IPC: 0.847272 (Simulation time: 3 hr 32 min 47 sec) 
Heartbeat CPU 0 instructions: 86000001 cycles: 93504724 heartbeat IPC: 0.999681 cumulative IPC: 0.848975 (Simulation time: 3 hr 35 min 15 sec) 
Heartbeat CPU 0 instructions: 87000000 cycles: 94673323 heartbeat IPC: 0.855725 cumulative IPC: 0.849062 (Simulation time: 3 hr 38 min 3 sec) 
Heartbeat CPU 0 instructions: 88000000 cycles: 95520739 heartbeat IPC: 1.18006 cumulative IPC: 0.852126 (Simulation time: 3 hr 40 min 46 sec) 
Heartbeat CPU 0 instructions: 89000001 cycles: 96318454 heartbeat IPC: 1.25358 cumulative IPC: 0.855594 (Simulation time: 3 hr 43 min 6 sec) 
Heartbeat CPU 0 instructions: 90000000 cycles: 97584399 heartbeat IPC: 0.789923 cumulative IPC: 0.854706 (Simulation time: 3 hr 45 min 40 sec) 
Heartbeat CPU 0 instructions: 91000003 cycles: 98844019 heartbeat IPC: 0.793893 cumulative IPC: 0.853899 (Simulation time: 3 hr 48 min 6 sec) 
Heartbeat CPU 0 instructions: 92000000 cycles: 99802683 heartbeat IPC: 1.04312 cumulative IPC: 0.855792 (Simulation time: 3 hr 50 min 41 sec) 
Heartbeat CPU 0 instructions: 93000000 cycles: 100632564 heartbeat IPC: 1.20499 cumulative IPC: 0.85879 (Simulation time: 3 hr 53 min 18 sec) 
Heartbeat CPU 0 instructions: 94000002 cycles: 101440842 heartbeat IPC: 1.2372 cumulative IPC: 0.861929 (Simulation time: 3 hr 55 min 36 sec) 
Heartbeat CPU 0 instructions: 95000001 cycles: 102798762 heartbeat IPC: 0.73642 cumulative IPC: 0.860204 (Simulation time: 3 hr 58 min 11 sec) 
Heartbeat CPU 0 instructions: 96000000 cycles: 103647035 heartbeat IPC: 1.17886 cumulative IPC: 0.862916 (Simulation time: 4 hr 0 min 34 sec) 
Heartbeat CPU 0 instructions: 97000002 cycles: 104466094 heartbeat IPC: 1.22092 cumulative IPC: 0.865834 (Simulation time: 4 hr 2 min 54 sec) 
Heartbeat CPU 0 instructions: 98000003 cycles: 105607765 heartbeat IPC: 0.87591 cumulative IPC: 0.865947 (Simulation time: 4 hr 5 min 21 sec) 
Heartbeat CPU 0 instructions: 99000000 cycles: 106660809 heartbeat IPC: 0.949625 cumulative IPC: 0.866806 (Simulation time: 4 hr 7 min 46 sec) 
Heartbeat CPU 0 instructions: 100000000 cycles: 107485399 heartbeat IPC: 1.21272 cumulative IPC: 0.869562 (Simulation time: 4 hr 10 min 8 sec) 
Heartbeat CPU 0 instructions: 101000000 cycles: 108288070 heartbeat IPC: 1.24584 cumulative IPC: 0.872457 (Simulation time: 4 hr 12 min 12 sec) 
Heartbeat CPU 0 instructions: 102000003 cycles: 109740683 heartbeat IPC: 0.688417 cumulative IPC: 0.869929 (Simulation time: 4 hr 14 min 29 sec) 
Heartbeat CPU 0 instructions: 103000000 cycles: 110686934 heartbeat IPC: 1.0568 cumulative IPC: 0.871587 (Simulation time: 4 hr 16 min 37 sec) 
Heartbeat CPU 0 instructions: 104000000 cycles: 111508676 heartbeat IPC: 1.21693 cumulative IPC: 0.874226 (Simulation time: 4 hr 18 min 37 sec) 
Heartbeat CPU 0 instructions: 105000002 cycles: 112556707 heartbeat IPC: 0.954172 cumulative IPC: 0.874998 (Simulation time: 4 hr 20 min 43 sec) 
Heartbeat CPU 0 instructions: 106000003 cycles: 114051747 heartbeat IPC: 0.668879 cumulative IPC: 0.872198 (Simulation time: 4 hr 22 min 47 sec) 
Heartbeat CPU 0 instructions: 107000001 cycles: 114914708 heartbeat IPC: 1.1588 cumulative IPC: 0.874427 (Simulation time: 4 hr 24 min 31 sec) 
Heartbeat CPU 0 instructions: 108000000 cycles: 115738384 heartbeat IPC: 1.21407 cumulative IPC: 0.876931 (Simulation time: 4 hr 26 min 12 sec) 
Heartbeat CPU 0 instructions: 109000001 cycles: 116859321 heartbeat IPC: 0.892112 cumulative IPC: 0.877081 (Simulation time: 4 hr 27 min 51 sec) 
Heartbeat CPU 0 instructions: 110000000 cycles: 118229902 heartbeat IPC: 0.729617 cumulative IPC: 0.875312 (Simulation time: 4 hr 29 min 22 sec) 
Finished CPU 0 instructions: 100000000 cycles: 114244928 cummulative IPC: 0.875312 (Simulation time: 4 hr 29 min 22 sec) 

ChampSim completed all CPUs

Region of Interest Statistics

CPU 0 cummulative IPC: 0.875312 instructions: 100000000 cycles: 114244928
LLC TOTAL     ACCESS:    1795715  HIT:     738536  MISS:    1057179
LLC LOAD      ACCESS:     314613  HIT:     213987  MISS:     100626
LLC RFO       ACCESS:      99663  HIT:      86477  MISS:      13186
LLC PREFETCH  ACCESS:    1240015  HIT:     302761  MISS:     937254
LLC WRITEBACK ACCESS:     141424  HIT:     135311  MISS:       6113
Insertion Distribution: 
	LOAD 8805 0 59430 57878 
	RFO 328 0 14993 2379 
	PREF 0 2348 321395 732604 
	WRITEBACK 0 0 0 7368 
Total Prefetch Downgrades: 6064
