
*** ChampSim Multicore Out-of-Order Simulator ***

Warmup Instructions: 10000000
Simulation Instructions: 100000000
Configuration: 2
Number of CPUs: 1
LLC sets: 2048
LLC ways: 16
Off-chip DRAM Channels: 1 Width: 64-bit Data Rate: 1600 MT/s

CPU 0 runs /datasets/cs240c-wi22-a00-public/data/Assignment2-gz/libquantum_1735B.trace.gz
CPU 0 L1D next line prefetcher
CPU 0 L2C IP-based stride prefetcher
Initialize SRRIP state
Heartbeat CPU 0 instructions: 1000001 cycles: 333341 heartbeat IPC: 2.99993 cumulative IPC: 2.99993 (Simulation time: 0 hr 1 min 42 sec) 
Heartbeat CPU 0 instructions: 2000000 cycles: 666674 heartbeat IPC: 3 cumulative IPC: 2.99997 (Simulation time: 0 hr 3 min 21 sec) 
Heartbeat CPU 0 instructions: 3000000 cycles: 989045 heartbeat IPC: 3.10202 cumulative IPC: 3.03323 (Simulation time: 0 hr 4 min 57 sec) 
Heartbeat CPU 0 instructions: 4000000 cycles: 1290770 heartbeat IPC: 3.31428 cumulative IPC: 3.09893 (Simulation time: 0 hr 6 min 33 sec) 
Heartbeat CPU 0 instructions: 5000001 cycles: 1592495 heartbeat IPC: 3.31428 cumulative IPC: 3.13973 (Simulation time: 0 hr 8 min 2 sec) 
Heartbeat CPU 0 instructions: 6000001 cycles: 1894219 heartbeat IPC: 3.31429 cumulative IPC: 3.16753 (Simulation time: 0 hr 9 min 31 sec) 
Heartbeat CPU 0 instructions: 7000002 cycles: 2195942 heartbeat IPC: 3.3143 cumulative IPC: 3.1877 (Simulation time: 0 hr 11 min 8 sec) 
Heartbeat CPU 0 instructions: 8000000 cycles: 2501897 heartbeat IPC: 3.26845 cumulative IPC: 3.19757 (Simulation time: 0 hr 12 min 41 sec) 
Heartbeat CPU 0 instructions: 9000000 cycles: 2835230 heartbeat IPC: 3 cumulative IPC: 3.17435 (Simulation time: 0 hr 14 min 17 sec) 
Heartbeat CPU 0 instructions: 10000002 cycles: 3168564 heartbeat IPC: 3 cumulative IPC: 3.156 (Simulation time: 0 hr 15 min 47 sec) 

Warmup complete CPU 0 instructions: 10000002 cycles: 3168564 (Simulation time: 0 hr 15 min 47 sec) 

Heartbeat CPU 0 instructions: 11000001 cycles: 4717347 heartbeat IPC: 0.645668 cumulative IPC: 0.645668 (Simulation time: 0 hr 18 min 18 sec) 
Heartbeat CPU 0 instructions: 12000000 cycles: 6235449 heartbeat IPC: 0.658717 cumulative IPC: 0.652127 (Simulation time: 0 hr 20 min 45 sec) 
Heartbeat CPU 0 instructions: 13000001 cycles: 8102875 heartbeat IPC: 0.535497 cumulative IPC: 0.607987 (Simulation time: 0 hr 23 min 6 sec) 
Heartbeat CPU 0 instructions: 14000000 cycles: 10633621 heartbeat IPC: 0.39514 cumulative IPC: 0.53583 (Simulation time: 0 hr 25 min 5 sec) 
Heartbeat CPU 0 instructions: 15000000 cycles: 13154746 heartbeat IPC: 0.396648 cumulative IPC: 0.500692 (Simulation time: 0 hr 27 min 9 sec) 
Heartbeat CPU 0 instructions: 16000000 cycles: 15671886 heartbeat IPC: 0.397276 cumulative IPC: 0.479872 (Simulation time: 0 hr 29 min 14 sec) 
Heartbeat CPU 0 instructions: 17000002 cycles: 18208396 heartbeat IPC: 0.394243 cumulative IPC: 0.465431 (Simulation time: 0 hr 31 min 13 sec) 
Heartbeat CPU 0 instructions: 18000001 cycles: 20454081 heartbeat IPC: 0.445298 cumulative IPC: 0.462815 (Simulation time: 0 hr 33 min 32 sec) 
Heartbeat CPU 0 instructions: 19000000 cycles: 22032470 heartbeat IPC: 0.633557 cumulative IPC: 0.477102 (Simulation time: 0 hr 36 min 5 sec) 
Heartbeat CPU 0 instructions: 20000000 cycles: 23623940 heartbeat IPC: 0.62835 cumulative IPC: 0.488869 (Simulation time: 0 hr 38 min 33 sec) 
Heartbeat CPU 0 instructions: 21000001 cycles: 25217137 heartbeat IPC: 0.627669 cumulative IPC: 0.498898 (Simulation time: 0 hr 40 min 51 sec) 
Heartbeat CPU 0 instructions: 22000000 cycles: 26781290 heartbeat IPC: 0.639323 cumulative IPC: 0.5082 (Simulation time: 0 hr 43 min 9 sec) 
Heartbeat CPU 0 instructions: 23000000 cycles: 29026944 heartbeat IPC: 0.445305 cumulative IPC: 0.502738 (Simulation time: 0 hr 45 min 16 sec) 
Heartbeat CPU 0 instructions: 24000000 cycles: 31739672 heartbeat IPC: 0.368633 cumulative IPC: 0.490005 (Simulation time: 0 hr 47 min 27 sec) 
Heartbeat CPU 0 instructions: 25000000 cycles: 34433526 heartbeat IPC: 0.371215 cumulative IPC: 0.47977 (Simulation time: 0 hr 49 min 45 sec) 
Heartbeat CPU 0 instructions: 26000000 cycles: 37135491 heartbeat IPC: 0.370101 cumulative IPC: 0.471046 (Simulation time: 0 hr 52 min 6 sec) 
Heartbeat CPU 0 instructions: 27000001 cycles: 39875604 heartbeat IPC: 0.364949 cumulative IPC: 0.463126 (Simulation time: 0 hr 54 min 27 sec) 
Heartbeat CPU 0 instructions: 28000000 cycles: 41929116 heartbeat IPC: 0.48697 cumulative IPC: 0.46439 (Simulation time: 0 hr 57 min 4 sec) 
Heartbeat CPU 0 instructions: 29000000 cycles: 43435517 heartbeat IPC: 0.663834 cumulative IPC: 0.471851 (Simulation time: 0 hr 59 min 52 sec) 
Heartbeat CPU 0 instructions: 30000001 cycles: 44952758 heartbeat IPC: 0.659092 cumulative IPC: 0.47865 (Simulation time: 1 hr 2 min 49 sec) 
Heartbeat CPU 0 instructions: 31000000 cycles: 46462362 heartbeat IPC: 0.662425 cumulative IPC: 0.485058 (Simulation time: 1 hr 5 min 23 sec) 
Heartbeat CPU 0 instructions: 32000000 cycles: 47941587 heartbeat IPC: 0.67603 cumulative IPC: 0.491367 (Simulation time: 1 hr 8 min 3 sec) 
Heartbeat CPU 0 instructions: 33000002 cycles: 50025472 heartbeat IPC: 0.479874 cumulative IPC: 0.490856 (Simulation time: 1 hr 10 min 25 sec) 
Heartbeat CPU 0 instructions: 34000000 cycles: 52260981 heartbeat IPC: 0.447325 cumulative IPC: 0.488874 (Simulation time: 1 hr 12 min 43 sec) 
Heartbeat CPU 0 instructions: 35000000 cycles: 54486412 heartbeat IPC: 0.449351 cumulative IPC: 0.48716 (Simulation time: 1 hr 15 min 13 sec) 
Heartbeat CPU 0 instructions: 36000000 cycles: 56725865 heartbeat IPC: 0.446538 cumulative IPC: 0.485461 (Simulation time: 1 hr 17 min 46 sec) 
Heartbeat CPU 0 instructions: 37000002 cycles: 59000604 heartbeat IPC: 0.439612 cumulative IPC: 0.483593 (Simulation time: 1 hr 20 min 5 sec) 
Heartbeat CPU 0 instructions: 38000003 cycles: 60833022 heartbeat IPC: 0.545728 cumulative IPC: 0.485568 (Simulation time: 1 hr 22 min 46 sec) 
Heartbeat CPU 0 instructions: 39000000 cycles: 62368436 heartbeat IPC: 0.651288 cumulative IPC: 0.489866 (Simulation time: 1 hr 25 min 22 sec) 
Heartbeat CPU 0 instructions: 40000000 cycles: 63912590 heartbeat IPC: 0.647604 cumulative IPC: 0.493876 (Simulation time: 1 hr 28 min 12 sec) 
Heartbeat CPU 0 instructions: 41000000 cycles: 65441943 heartbeat IPC: 0.653871 cumulative IPC: 0.497805 (Simulation time: 1 hr 31 min 8 sec) 
Heartbeat CPU 0 instructions: 42000001 cycles: 66926293 heartbeat IPC: 0.673696 cumulative IPC: 0.5019 (Simulation time: 1 hr 33 min 51 sec) 
Heartbeat CPU 0 instructions: 43000000 cycles: 69055679 heartbeat IPC: 0.469618 cumulative IPC: 0.500857 (Simulation time: 1 hr 36 min 13 sec) 
Heartbeat CPU 0 instructions: 44000000 cycles: 71281071 heartbeat IPC: 0.449359 cumulative IPC: 0.499174 (Simulation time: 1 hr 38 min 30 sec) 
Heartbeat CPU 0 instructions: 45000001 cycles: 73495702 heartbeat IPC: 0.451543 cumulative IPC: 0.497674 (Simulation time: 1 hr 40 min 50 sec) 
Heartbeat CPU 0 instructions: 46000002 cycles: 75729286 heartbeat IPC: 0.447711 cumulative IPC: 0.496136 (Simulation time: 1 hr 42 min 59 sec) 
Heartbeat CPU 0 instructions: 47000000 cycles: 78013526 heartbeat IPC: 0.437781 cumulative IPC: 0.494355 (Simulation time: 1 hr 45 min 20 sec) 
Heartbeat CPU 0 instructions: 48000000 cycles: 79866618 heartbeat IPC: 0.539639 cumulative IPC: 0.495449 (Simulation time: 1 hr 47 min 46 sec) 
Heartbeat CPU 0 instructions: 49000002 cycles: 81496815 heartbeat IPC: 0.613424 cumulative IPC: 0.497905 (Simulation time: 1 hr 50 min 21 sec) 
Heartbeat CPU 0 instructions: 50000001 cycles: 83138233 heartbeat IPC: 0.609229 cumulative IPC: 0.50019 (Simulation time: 1 hr 52 min 45 sec) 
Heartbeat CPU 0 instructions: 51000000 cycles: 84765518 heartbeat IPC: 0.61452 cumulative IPC: 0.50247 (Simulation time: 1 hr 55 min 12 sec) 
Heartbeat CPU 0 instructions: 52000000 cycles: 86351690 heartbeat IPC: 0.630449 cumulative IPC: 0.50491 (Simulation time: 1 hr 57 min 37 sec) 
Heartbeat CPU 0 instructions: 53000002 cycles: 87895903 heartbeat IPC: 0.64758 cumulative IPC: 0.50751 (Simulation time: 2 hr 0 min 4 sec) 
Heartbeat CPU 0 instructions: 54000001 cycles: 89422029 heartbeat IPC: 0.655253 cumulative IPC: 0.510124 (Simulation time: 2 hr 2 min 32 sec) 
Heartbeat CPU 0 instructions: 55000000 cycles: 90943267 heartbeat IPC: 0.657359 cumulative IPC: 0.512676 (Simulation time: 2 hr 4 min 52 sec) 
Heartbeat CPU 0 instructions: 56000000 cycles: 92462884 heartbeat IPC: 0.658061 cumulative IPC: 0.51515 (Simulation time: 2 hr 7 min 16 sec) 
Heartbeat CPU 0 instructions: 57000000 cycles: 93982477 heartbeat IPC: 0.658071 cumulative IPC: 0.517542 (Simulation time: 2 hr 9 min 26 sec) 
Heartbeat CPU 0 instructions: 58000002 cycles: 95501948 heartbeat IPC: 0.658125 cumulative IPC: 0.519855 (Simulation time: 2 hr 11 min 42 sec) 
Heartbeat CPU 0 instructions: 59000001 cycles: 97021494 heartbeat IPC: 0.658091 cumulative IPC: 0.522093 (Simulation time: 2 hr 14 min 0 sec) 
Heartbeat CPU 0 instructions: 60000000 cycles: 98540958 heartbeat IPC: 0.658126 cumulative IPC: 0.524261 (Simulation time: 2 hr 16 min 20 sec) 
Heartbeat CPU 0 instructions: 61000003 cycles: 100060578 heartbeat IPC: 0.658061 cumulative IPC: 0.526359 (Simulation time: 2 hr 18 min 49 sec) 
Heartbeat CPU 0 instructions: 62000002 cycles: 101580050 heartbeat IPC: 0.658123 cumulative IPC: 0.528394 (Simulation time: 2 hr 20 min 56 sec) 
Heartbeat CPU 0 instructions: 63000001 cycles: 103099594 heartbeat IPC: 0.658091 cumulative IPC: 0.530366 (Simulation time: 2 hr 23 min 20 sec) 
Heartbeat CPU 0 instructions: 64000000 cycles: 104619058 heartbeat IPC: 0.658126 cumulative IPC: 0.532279 (Simulation time: 2 hr 25 min 45 sec) 
Heartbeat CPU 0 instructions: 65000001 cycles: 106138546 heartbeat IPC: 0.658117 cumulative IPC: 0.534136 (Simulation time: 2 hr 28 min 3 sec) 
Heartbeat CPU 0 instructions: 66000000 cycles: 107658081 heartbeat IPC: 0.658095 cumulative IPC: 0.535939 (Simulation time: 2 hr 30 min 18 sec) 
Heartbeat CPU 0 instructions: 67000001 cycles: 109155645 heartbeat IPC: 0.667752 cumulative IPC: 0.537801 (Simulation time: 2 hr 32 min 28 sec) 
Heartbeat CPU 0 instructions: 68000000 cycles: 110647768 heartbeat IPC: 0.670185 cumulative IPC: 0.539639 (Simulation time: 2 hr 34 min 46 sec) 
Heartbeat CPU 0 instructions: 69000002 cycles: 112139915 heartbeat IPC: 0.670177 cumulative IPC: 0.541427 (Simulation time: 2 hr 37 min 11 sec) 
Heartbeat CPU 0 instructions: 70000001 cycles: 113632136 heartbeat IPC: 0.670141 cumulative IPC: 0.543166 (Simulation time: 2 hr 39 min 26 sec) 
Heartbeat CPU 0 instructions: 71000003 cycles: 115183057 heartbeat IPC: 0.644779 cumulative IPC: 0.544572 (Simulation time: 2 hr 41 min 49 sec) 
Heartbeat CPU 0 instructions: 72000000 cycles: 117369265 heartbeat IPC: 0.457412 cumulative IPC: 0.542904 (Simulation time: 2 hr 43 min 54 sec) 
Heartbeat CPU 0 instructions: 73000000 cycles: 119585326 heartbeat IPC: 0.451251 cumulative IPC: 0.541159 (Simulation time: 2 hr 45 min 58 sec) 
Heartbeat CPU 0 instructions: 74000000 cycles: 121802009 heartbeat IPC: 0.451124 cumulative IPC: 0.539477 (Simulation time: 2 hr 47 min 59 sec) 
Heartbeat CPU 0 instructions: 75000000 cycles: 124036321 heartbeat IPC: 0.447565 cumulative IPC: 0.537778 (Simulation time: 2 hr 50 min 15 sec) 
Heartbeat CPU 0 instructions: 76000000 cycles: 126325612 heartbeat IPC: 0.436816 cumulative IPC: 0.535901 (Simulation time: 2 hr 52 min 27 sec) 
Heartbeat CPU 0 instructions: 77000001 cycles: 128025711 heartbeat IPC: 0.588202 cumulative IPC: 0.536613 (Simulation time: 2 hr 54 min 52 sec) 
Heartbeat CPU 0 instructions: 78000000 cycles: 129651025 heartbeat IPC: 0.615265 cumulative IPC: 0.537624 (Simulation time: 2 hr 57 min 19 sec) 
Heartbeat CPU 0 instructions: 79000001 cycles: 131279330 heartbeat IPC: 0.614136 cumulative IPC: 0.538596 (Simulation time: 2 hr 59 min 55 sec) 
Heartbeat CPU 0 instructions: 80000000 cycles: 132888270 heartbeat IPC: 0.621527 cumulative IPC: 0.539625 (Simulation time: 3 hr 2 min 6 sec) 
Heartbeat CPU 0 instructions: 81000002 cycles: 134539318 heartbeat IPC: 0.605677 cumulative IPC: 0.540455 (Simulation time: 3 hr 4 min 29 sec) 
Heartbeat CPU 0 instructions: 82000003 cycles: 136755678 heartbeat IPC: 0.451191 cumulative IPC: 0.538974 (Simulation time: 3 hr 6 min 36 sec) 
Heartbeat CPU 0 instructions: 83000000 cycles: 138981875 heartbeat IPC: 0.449195 cumulative IPC: 0.537503 (Simulation time: 3 hr 8 min 44 sec) 
Heartbeat CPU 0 instructions: 84000000 cycles: 141190072 heartbeat IPC: 0.452858 cumulative IPC: 0.536148 (Simulation time: 3 hr 10 min 52 sec) 
Heartbeat CPU 0 instructions: 85000002 cycles: 143434789 heartbeat IPC: 0.445491 cumulative IPC: 0.534697 (Simulation time: 3 hr 13 min 14 sec) 
Heartbeat CPU 0 instructions: 86000002 cycles: 145721589 heartbeat IPC: 0.437292 cumulative IPC: 0.533135 (Simulation time: 3 hr 15 min 13 sec) 
Heartbeat CPU 0 instructions: 87000002 cycles: 147820080 heartbeat IPC: 0.476533 cumulative IPC: 0.532314 (Simulation time: 3 hr 17 min 53 sec) 
Heartbeat CPU 0 instructions: 88000000 cycles: 149484925 heartbeat IPC: 0.600655 cumulative IPC: 0.533091 (Simulation time: 3 hr 20 min 16 sec) 
Heartbeat CPU 0 instructions: 89000000 cycles: 151088289 heartbeat IPC: 0.623689 cumulative IPC: 0.534073 (Simulation time: 3 hr 22 min 44 sec) 
Heartbeat CPU 0 instructions: 90000000 cycles: 153006794 heartbeat IPC: 0.521239 cumulative IPC: 0.533909 (Simulation time: 3 hr 25 min 6 sec) 
Heartbeat CPU 0 instructions: 91000001 cycles: 155840681 heartbeat IPC: 0.352873 cumulative IPC: 0.530549 (Simulation time: 3 hr 27 min 22 sec) 
Heartbeat CPU 0 instructions: 92000000 cycles: 158661711 heartbeat IPC: 0.35448 cumulative IPC: 0.527354 (Simulation time: 3 hr 29 min 28 sec) 
Heartbeat CPU 0 instructions: 93000001 cycles: 161517373 heartbeat IPC: 0.350182 cumulative IPC: 0.524159 (Simulation time: 3 hr 32 min 10 sec) 
Heartbeat CPU 0 instructions: 94000001 cycles: 164225085 heartbeat IPC: 0.369316 cumulative IPC: 0.521556 (Simulation time: 3 hr 34 min 50 sec) 
Heartbeat CPU 0 instructions: 95000000 cycles: 165938795 heartbeat IPC: 0.583529 cumulative IPC: 0.522209 (Simulation time: 3 hr 37 min 37 sec) 
Heartbeat CPU 0 instructions: 96000000 cycles: 167675774 heartbeat IPC: 0.575712 cumulative IPC: 0.522773 (Simulation time: 3 hr 40 min 32 sec) 
Heartbeat CPU 0 instructions: 97000002 cycles: 169381267 heartbeat IPC: 0.586342 cumulative IPC: 0.523426 (Simulation time: 3 hr 43 min 21 sec) 
Heartbeat CPU 0 instructions: 98000001 cycles: 171596079 heartbeat IPC: 0.451505 cumulative IPC: 0.52248 (Simulation time: 3 hr 45 min 49 sec) 
Heartbeat CPU 0 instructions: 99000003 cycles: 174414803 heartbeat IPC: 0.354771 cumulative IPC: 0.519719 (Simulation time: 3 hr 48 min 22 sec) 
Heartbeat CPU 0 instructions: 100000000 cycles: 177207012 heartbeat IPC: 0.358138 cumulative IPC: 0.517127 (Simulation time: 3 hr 50 min 57 sec) 
Heartbeat CPU 0 instructions: 101000000 cycles: 180038592 heartbeat IPC: 0.35316 cumulative IPC: 0.514502 (Simulation time: 3 hr 53 min 27 sec) 
Heartbeat CPU 0 instructions: 102000000 cycles: 182442161 heartbeat IPC: 0.416048 cumulative IPC: 0.513182 (Simulation time: 3 hr 55 min 54 sec) 
Heartbeat CPU 0 instructions: 103000002 cycles: 184022863 heartbeat IPC: 0.632632 cumulative IPC: 0.514226 (Simulation time: 3 hr 58 min 40 sec) 
Heartbeat CPU 0 instructions: 104000000 cycles: 185623892 heartbeat IPC: 0.624597 cumulative IPC: 0.515195 (Simulation time: 4 hr 1 min 7 sec) 
Heartbeat CPU 0 instructions: 105000000 cycles: 187217632 heartbeat IPC: 0.627455 cumulative IPC: 0.516167 (Simulation time: 4 hr 3 min 40 sec) 
Heartbeat CPU 0 instructions: 106000003 cycles: 188774104 heartbeat IPC: 0.642481 cumulative IPC: 0.517226 (Simulation time: 4 hr 6 min 7 sec) 
Heartbeat CPU 0 instructions: 107000000 cycles: 190967596 heartbeat IPC: 0.455893 cumulative IPC: 0.51651 (Simulation time: 4 hr 8 min 17 sec) 
Heartbeat CPU 0 instructions: 108000000 cycles: 193490031 heartbeat IPC: 0.396442 cumulative IPC: 0.514918 (Simulation time: 4 hr 10 min 15 sec) 
Heartbeat CPU 0 instructions: 109000002 cycles: 196008644 heartbeat IPC: 0.397045 cumulative IPC: 0.513379 (Simulation time: 4 hr 12 min 12 sec) 
Heartbeat CPU 0 instructions: 110000002 cycles: 198538213 heartbeat IPC: 0.395324 cumulative IPC: 0.51185 (Simulation time: 4 hr 14 min 11 sec) 
Finished CPU 0 instructions: 100000000 cycles: 195369649 cummulative IPC: 0.51185 (Simulation time: 4 hr 14 min 11 sec) 

ChampSim completed all CPUs

Region of Interest Statistics

CPU 0 cummulative IPC: 0.51185 instructions: 100000000 cycles: 195369649
LLC TOTAL     ACCESS:    3801551  HIT:     271995  MISS:    3529556
LLC LOAD      ACCESS:     656355  HIT:          0  MISS:     656355
LLC RFO       ACCESS:         20  HIT:          0  MISS:         20
LLC PREFETCH  ACCESS:    2133071  HIT:          0  MISS:    2133071
LLC WRITEBACK ACCESS:    1012105  HIT:     271995  MISS:     740110
Insertion Distribution: 
	LOAD 0 0 170815 489685 
	RFO 0 0 24 0 
	PREF 0 0 622562 1770434 
	WRITEBACK 0 0 0 830807 
Total Prefetch Downgrades: 0
