
*** ChampSim Multicore Out-of-Order Simulator ***

Warmup Instructions: 10000000
Simulation Instructions: 100000000
Configuration: 2
Number of CPUs: 1
LLC sets: 2048
LLC ways: 16
Off-chip DRAM Channels: 1 Width: 64-bit Data Rate: 1600 MT/s

CPU 0 runs /datasets/cs240c-wi22-a00-public/data/Assignment2-gz/libquantum_964B.trace.gz
CPU 0 L1D next line prefetcher
CPU 0 L2C IP-based stride prefetcher
Initialize SRRIP state
Heartbeat CPU 0 instructions: 1000002 cycles: 333341 heartbeat IPC: 2.99994 cumulative IPC: 2.99994 (Simulation time: 0 hr 1 min 39 sec) 
Heartbeat CPU 0 instructions: 2000001 cycles: 666674 heartbeat IPC: 3 cumulative IPC: 2.99997 (Simulation time: 0 hr 3 min 16 sec) 
Heartbeat CPU 0 instructions: 3000000 cycles: 1000007 heartbeat IPC: 3 cumulative IPC: 2.99998 (Simulation time: 0 hr 4 min 48 sec) 
Heartbeat CPU 0 instructions: 4000000 cycles: 1333341 heartbeat IPC: 2.99999 cumulative IPC: 2.99998 (Simulation time: 0 hr 6 min 23 sec) 
Heartbeat CPU 0 instructions: 5000000 cycles: 1666674 heartbeat IPC: 3 cumulative IPC: 2.99999 (Simulation time: 0 hr 7 min 51 sec) 
Heartbeat CPU 0 instructions: 6000002 cycles: 2000008 heartbeat IPC: 3 cumulative IPC: 2.99999 (Simulation time: 0 hr 9 min 15 sec) 
Heartbeat CPU 0 instructions: 7000001 cycles: 2331518 heartbeat IPC: 3.0165 cumulative IPC: 3.00234 (Simulation time: 0 hr 10 min 54 sec) 
Heartbeat CPU 0 instructions: 8000000 cycles: 2662240 heartbeat IPC: 3.02368 cumulative IPC: 3.00499 (Simulation time: 0 hr 12 min 29 sec) 
Heartbeat CPU 0 instructions: 9000001 cycles: 2992962 heartbeat IPC: 3.02369 cumulative IPC: 3.00705 (Simulation time: 0 hr 14 min 1 sec) 
Heartbeat CPU 0 instructions: 10000001 cycles: 3323684 heartbeat IPC: 3.02369 cumulative IPC: 3.00871 (Simulation time: 0 hr 15 min 41 sec) 

Warmup complete CPU 0 instructions: 10000001 cycles: 3323684 (Simulation time: 0 hr 15 min 41 sec) 

Heartbeat CPU 0 instructions: 11000000 cycles: 5048511 heartbeat IPC: 0.579768 cumulative IPC: 0.579768 (Simulation time: 0 hr 17 min 58 sec) 
Heartbeat CPU 0 instructions: 12000000 cycles: 6790911 heartbeat IPC: 0.573921 cumulative IPC: 0.57683 (Simulation time: 0 hr 20 min 34 sec) 
Heartbeat CPU 0 instructions: 13000001 cycles: 8531496 heartbeat IPC: 0.57452 cumulative IPC: 0.576058 (Simulation time: 0 hr 23 min 2 sec) 
Heartbeat CPU 0 instructions: 14000000 cycles: 10273511 heartbeat IPC: 0.574047 cumulative IPC: 0.575554 (Simulation time: 0 hr 25 min 18 sec) 
Heartbeat CPU 0 instructions: 15000003 cycles: 12019997 heartbeat IPC: 0.57258 cumulative IPC: 0.574957 (Simulation time: 0 hr 27 min 24 sec) 
Heartbeat CPU 0 instructions: 16000000 cycles: 13758932 heartbeat IPC: 0.575063 cumulative IPC: 0.574974 (Simulation time: 0 hr 29 min 44 sec) 
Heartbeat CPU 0 instructions: 17000000 cycles: 15509835 heartbeat IPC: 0.571134 cumulative IPC: 0.574422 (Simulation time: 0 hr 32 min 14 sec) 
Heartbeat CPU 0 instructions: 18000003 cycles: 17247195 heartbeat IPC: 0.575588 cumulative IPC: 0.574568 (Simulation time: 0 hr 34 min 45 sec) 
Heartbeat CPU 0 instructions: 19000002 cycles: 18994574 heartbeat IPC: 0.572285 cumulative IPC: 0.574313 (Simulation time: 0 hr 37 min 14 sec) 
Heartbeat CPU 0 instructions: 20000000 cycles: 20737275 heartbeat IPC: 0.573821 cumulative IPC: 0.574264 (Simulation time: 0 hr 39 min 43 sec) 
Heartbeat CPU 0 instructions: 21000003 cycles: 22480568 heartbeat IPC: 0.573629 cumulative IPC: 0.574206 (Simulation time: 0 hr 42 min 14 sec) 
Heartbeat CPU 0 instructions: 22000002 cycles: 24225506 heartbeat IPC: 0.573086 cumulative IPC: 0.574113 (Simulation time: 0 hr 44 min 51 sec) 
Heartbeat CPU 0 instructions: 23000000 cycles: 25960144 heartbeat IPC: 0.576488 cumulative IPC: 0.574295 (Simulation time: 0 hr 47 min 32 sec) 
Heartbeat CPU 0 instructions: 24000000 cycles: 27714425 heartbeat IPC: 0.570034 cumulative IPC: 0.573988 (Simulation time: 0 hr 50 min 8 sec) 
Heartbeat CPU 0 instructions: 25000000 cycles: 29452392 heartbeat IPC: 0.575385 cumulative IPC: 0.574081 (Simulation time: 0 hr 52 min 42 sec) 
Heartbeat CPU 0 instructions: 26000002 cycles: 31304944 heartbeat IPC: 0.539797 cumulative IPC: 0.571811 (Simulation time: 0 hr 55 min 38 sec) 
Heartbeat CPU 0 instructions: 27000002 cycles: 33698716 heartbeat IPC: 0.417751 cumulative IPC: 0.55967 (Simulation time: 0 hr 58 min 55 sec) 
Heartbeat CPU 0 instructions: 28000000 cycles: 36171479 heartbeat IPC: 0.404405 cumulative IPC: 0.547982 (Simulation time: 1 hr 2 min 23 sec) 
Heartbeat CPU 0 instructions: 29000002 cycles: 38663748 heartbeat IPC: 0.401242 cumulative IPC: 0.537633 (Simulation time: 1 hr 5 min 40 sec) 
Heartbeat CPU 0 instructions: 30000002 cycles: 41161744 heartbeat IPC: 0.400321 cumulative IPC: 0.528568 (Simulation time: 1 hr 8 min 58 sec) 
Heartbeat CPU 0 instructions: 31000002 cycles: 43663959 heartbeat IPC: 0.399646 cumulative IPC: 0.520572 (Simulation time: 1 hr 12 min 18 sec) 
Heartbeat CPU 0 instructions: 32000000 cycles: 46146963 heartbeat IPC: 0.402737 cumulative IPC: 0.513739 (Simulation time: 1 hr 15 min 13 sec) 
Heartbeat CPU 0 instructions: 33000002 cycles: 48639003 heartbeat IPC: 0.401278 cumulative IPC: 0.507555 (Simulation time: 1 hr 18 min 18 sec) 
Heartbeat CPU 0 instructions: 34000002 cycles: 51136921 heartbeat IPC: 0.400333 cumulative IPC: 0.501953 (Simulation time: 1 hr 21 min 31 sec) 
Heartbeat CPU 0 instructions: 35000002 cycles: 53620934 heartbeat IPC: 0.402574 cumulative IPC: 0.497045 (Simulation time: 1 hr 24 min 28 sec) 
Heartbeat CPU 0 instructions: 36000000 cycles: 55993345 heartbeat IPC: 0.421511 cumulative IPC: 0.493643 (Simulation time: 1 hr 27 min 19 sec) 
Heartbeat CPU 0 instructions: 37000001 cycles: 57612460 heartbeat IPC: 0.617622 cumulative IPC: 0.49734 (Simulation time: 1 hr 29 min 46 sec) 
Heartbeat CPU 0 instructions: 38000000 cycles: 59221049 heartbeat IPC: 0.621662 cumulative IPC: 0.500918 (Simulation time: 1 hr 32 min 25 sec) 
Heartbeat CPU 0 instructions: 39000003 cycles: 60818850 heartbeat IPC: 0.625862 cumulative IPC: 0.50439 (Simulation time: 1 hr 34 min 58 sec) 
Heartbeat CPU 0 instructions: 40000000 cycles: 62381228 heartbeat IPC: 0.640048 cumulative IPC: 0.507979 (Simulation time: 1 hr 37 min 33 sec) 
Heartbeat CPU 0 instructions: 41000001 cycles: 63899060 heartbeat IPC: 0.658835 cumulative IPC: 0.511759 (Simulation time: 1 hr 40 min 10 sec) 
Heartbeat CPU 0 instructions: 42000000 cycles: 65383280 heartbeat IPC: 0.673754 cumulative IPC: 0.515633 (Simulation time: 1 hr 42 min 52 sec) 
Heartbeat CPU 0 instructions: 43000001 cycles: 66854883 heartbeat IPC: 0.679532 cumulative IPC: 0.51943 (Simulation time: 1 hr 45 min 29 sec) 
Heartbeat CPU 0 instructions: 44000000 cycles: 68321871 heartbeat IPC: 0.681668 cumulative IPC: 0.523091 (Simulation time: 1 hr 47 min 56 sec) 
Heartbeat CPU 0 instructions: 45000002 cycles: 69787978 heartbeat IPC: 0.68208 cumulative IPC: 0.526599 (Simulation time: 1 hr 50 min 36 sec) 
Heartbeat CPU 0 instructions: 46000001 cycles: 71254159 heartbeat IPC: 0.682043 cumulative IPC: 0.529954 (Simulation time: 1 hr 53 min 11 sec) 
Heartbeat CPU 0 instructions: 47000000 cycles: 72720249 heartbeat IPC: 0.682086 cumulative IPC: 0.533168 (Simulation time: 1 hr 55 min 53 sec) 
Heartbeat CPU 0 instructions: 48000000 cycles: 74186413 heartbeat IPC: 0.682052 cumulative IPC: 0.536248 (Simulation time: 1 hr 58 min 51 sec) 
Heartbeat CPU 0 instructions: 49000002 cycles: 75652848 heartbeat IPC: 0.681927 cumulative IPC: 0.539202 (Simulation time: 2 hr 1 min 39 sec) 
Heartbeat CPU 0 instructions: 50000001 cycles: 77118940 heartbeat IPC: 0.682085 cumulative IPC: 0.54204 (Simulation time: 2 hr 4 min 6 sec) 
Heartbeat CPU 0 instructions: 51000000 cycles: 78585030 heartbeat IPC: 0.682086 cumulative IPC: 0.544768 (Simulation time: 2 hr 6 min 53 sec) 
Heartbeat CPU 0 instructions: 52000000 cycles: 80051295 heartbeat IPC: 0.682005 cumulative IPC: 0.547391 (Simulation time: 2 hr 9 min 32 sec) 
Heartbeat CPU 0 instructions: 53000000 cycles: 81517501 heartbeat IPC: 0.682032 cumulative IPC: 0.549916 (Simulation time: 2 hr 12 min 13 sec) 
Heartbeat CPU 0 instructions: 54000002 cycles: 82983577 heartbeat IPC: 0.682094 cumulative IPC: 0.552348 (Simulation time: 2 hr 14 min 46 sec) 
Heartbeat CPU 0 instructions: 55000002 cycles: 84523304 heartbeat IPC: 0.649466 cumulative IPC: 0.55419 (Simulation time: 2 hr 17 min 27 sec) 
Heartbeat CPU 0 instructions: 56000000 cycles: 86251800 heartbeat IPC: 0.578537 cumulative IPC: 0.554697 (Simulation time: 2 hr 19 min 55 sec) 
Heartbeat CPU 0 instructions: 57000001 cycles: 87990245 heartbeat IPC: 0.575227 cumulative IPC: 0.555119 (Simulation time: 2 hr 22 min 30 sec) 
Heartbeat CPU 0 instructions: 58000000 cycles: 89721328 heartbeat IPC: 0.577672 cumulative IPC: 0.555571 (Simulation time: 2 hr 24 min 56 sec) 
Heartbeat CPU 0 instructions: 59000003 cycles: 91458773 heartbeat IPC: 0.575559 cumulative IPC: 0.555965 (Simulation time: 2 hr 27 min 22 sec) 
Heartbeat CPU 0 instructions: 60000000 cycles: 93199944 heartbeat IPC: 0.574324 cumulative IPC: 0.55632 (Simulation time: 2 hr 30 min 2 sec) 
Heartbeat CPU 0 instructions: 61000002 cycles: 94943730 heartbeat IPC: 0.573466 cumulative IPC: 0.556647 (Simulation time: 2 hr 32 min 40 sec) 
Heartbeat CPU 0 instructions: 62000001 cycles: 96697872 heartbeat IPC: 0.570079 cumulative IPC: 0.556899 (Simulation time: 2 hr 35 min 18 sec) 
Heartbeat CPU 0 instructions: 63000001 cycles: 98439226 heartbeat IPC: 0.574266 cumulative IPC: 0.557217 (Simulation time: 2 hr 37 min 43 sec) 
Heartbeat CPU 0 instructions: 64000000 cycles: 100191512 heartbeat IPC: 0.570683 cumulative IPC: 0.557461 (Simulation time: 2 hr 40 min 10 sec) 
Heartbeat CPU 0 instructions: 65000002 cycles: 101941981 heartbeat IPC: 0.571277 cumulative IPC: 0.557706 (Simulation time: 2 hr 42 min 43 sec) 
Heartbeat CPU 0 instructions: 66000002 cycles: 103684318 heartbeat IPC: 0.573942 cumulative IPC: 0.557988 (Simulation time: 2 hr 45 min 4 sec) 
Heartbeat CPU 0 instructions: 67000000 cycles: 105432438 heartbeat IPC: 0.572042 cumulative IPC: 0.558228 (Simulation time: 2 hr 47 min 30 sec) 
Heartbeat CPU 0 instructions: 68000000 cycles: 107186298 heartbeat IPC: 0.570171 cumulative IPC: 0.55843 (Simulation time: 2 hr 50 min 0 sec) 
Heartbeat CPU 0 instructions: 69000000 cycles: 108936693 heartbeat IPC: 0.5713 cumulative IPC: 0.558643 (Simulation time: 2 hr 52 min 29 sec) 
Heartbeat CPU 0 instructions: 70000002 cycles: 110683609 heartbeat IPC: 0.572439 cumulative IPC: 0.558868 (Simulation time: 2 hr 55 min 3 sec) 
Heartbeat CPU 0 instructions: 71000001 cycles: 112434380 heartbeat IPC: 0.571176 cumulative IPC: 0.559065 (Simulation time: 2 hr 57 min 43 sec) 
Heartbeat CPU 0 instructions: 72000000 cycles: 114178346 heartbeat IPC: 0.573405 cumulative IPC: 0.559291 (Simulation time: 3 hr 0 min 28 sec) 
Heartbeat CPU 0 instructions: 73000000 cycles: 115927580 heartbeat IPC: 0.571679 cumulative IPC: 0.559483 (Simulation time: 3 hr 2 min 45 sec) 
Heartbeat CPU 0 instructions: 74000000 cycles: 117784566 heartbeat IPC: 0.538507 cumulative IPC: 0.559143 (Simulation time: 3 hr 5 min 14 sec) 
Heartbeat CPU 0 instructions: 75000000 cycles: 120076730 heartbeat IPC: 0.436269 cumulative IPC: 0.556731 (Simulation time: 3 hr 8 min 21 sec) 
Heartbeat CPU 0 instructions: 76000000 cycles: 122404911 heartbeat IPC: 0.42952 cumulative IPC: 0.554244 (Simulation time: 3 hr 11 min 12 sec) 
Heartbeat CPU 0 instructions: 77000000 cycles: 124850407 heartbeat IPC: 0.408915 cumulative IPC: 0.551319 (Simulation time: 3 hr 14 min 7 sec) 
Heartbeat CPU 0 instructions: 78000000 cycles: 127359232 heartbeat IPC: 0.398593 cumulative IPC: 0.54823 (Simulation time: 3 hr 17 min 15 sec) 
Heartbeat CPU 0 instructions: 79000000 cycles: 129869244 heartbeat IPC: 0.398404 cumulative IPC: 0.545258 (Simulation time: 3 hr 20 min 34 sec) 
Heartbeat CPU 0 instructions: 80000000 cycles: 132388053 heartbeat IPC: 0.397013 cumulative IPC: 0.542365 (Simulation time: 3 hr 23 min 55 sec) 
Heartbeat CPU 0 instructions: 81000000 cycles: 134897760 heartbeat IPC: 0.398453 cumulative IPC: 0.53962 (Simulation time: 3 hr 27 min 14 sec) 
Heartbeat CPU 0 instructions: 82000000 cycles: 137409950 heartbeat IPC: 0.398059 cumulative IPC: 0.536968 (Simulation time: 3 hr 30 min 7 sec) 
Heartbeat CPU 0 instructions: 83000000 cycles: 139924360 heartbeat IPC: 0.397708 cumulative IPC: 0.534404 (Simulation time: 3 hr 33 min 23 sec) 
Heartbeat CPU 0 instructions: 84000000 cycles: 142429411 heartbeat IPC: 0.399193 cumulative IPC: 0.531969 (Simulation time: 3 hr 36 min 18 sec) 
Heartbeat CPU 0 instructions: 85000001 cycles: 144311057 heartbeat IPC: 0.53145 cumulative IPC: 0.531963 (Simulation time: 3 hr 39 min 15 sec) 
Heartbeat CPU 0 instructions: 86000000 cycles: 145955855 heartbeat IPC: 0.607977 cumulative IPC: 0.532839 (Simulation time: 3 hr 42 min 0 sec) 
Heartbeat CPU 0 instructions: 87000003 cycles: 147598020 heartbeat IPC: 0.608954 cumulative IPC: 0.533705 (Simulation time: 3 hr 44 min 39 sec) 
Heartbeat CPU 0 instructions: 88000000 cycles: 149215958 heartbeat IPC: 0.618069 cumulative IPC: 0.534641 (Simulation time: 3 hr 47 min 15 sec) 
Heartbeat CPU 0 instructions: 89000001 cycles: 150793476 heartbeat IPC: 0.633908 cumulative IPC: 0.535703 (Simulation time: 3 hr 50 min 0 sec) 
Heartbeat CPU 0 instructions: 90000000 cycles: 152329949 heartbeat IPC: 0.650841 cumulative IPC: 0.53689 (Simulation time: 3 hr 52 min 43 sec) 
Heartbeat CPU 0 instructions: 91000001 cycles: 153847000 heartbeat IPC: 0.659174 cumulative IPC: 0.538123 (Simulation time: 3 hr 55 min 13 sec) 
Heartbeat CPU 0 instructions: 92000000 cycles: 155358834 heartbeat IPC: 0.661448 cumulative IPC: 0.539349 (Simulation time: 3 hr 57 min 58 sec) 
Heartbeat CPU 0 instructions: 93000002 cycles: 156869386 heartbeat IPC: 0.662011 cumulative IPC: 0.540556 (Simulation time: 4 hr 0 min 28 sec) 
Heartbeat CPU 0 instructions: 94000001 cycles: 158379306 heartbeat IPC: 0.662286 cumulative IPC: 0.541741 (Simulation time: 4 hr 3 min 10 sec) 
Heartbeat CPU 0 instructions: 95000000 cycles: 159889230 heartbeat IPC: 0.662284 cumulative IPC: 0.542904 (Simulation time: 4 hr 5 min 50 sec) 
Heartbeat CPU 0 instructions: 96000000 cycles: 161399224 heartbeat IPC: 0.662254 cumulative IPC: 0.544044 (Simulation time: 4 hr 8 min 30 sec) 
Heartbeat CPU 0 instructions: 97000002 cycles: 162909270 heartbeat IPC: 0.662233 cumulative IPC: 0.545162 (Simulation time: 4 hr 11 min 16 sec) 
Heartbeat CPU 0 instructions: 98000001 cycles: 164419192 heartbeat IPC: 0.662285 cumulative IPC: 0.54626 (Simulation time: 4 hr 13 min 40 sec) 
Heartbeat CPU 0 instructions: 99000000 cycles: 165929186 heartbeat IPC: 0.662254 cumulative IPC: 0.547337 (Simulation time: 4 hr 16 min 2 sec) 
Heartbeat CPU 0 instructions: 100000000 cycles: 167439107 heartbeat IPC: 0.662286 cumulative IPC: 0.548395 (Simulation time: 4 hr 18 min 25 sec) 
Heartbeat CPU 0 instructions: 101000000 cycles: 168949152 heartbeat IPC: 0.662232 cumulative IPC: 0.549432 (Simulation time: 4 hr 20 min 54 sec) 
Heartbeat CPU 0 instructions: 102000002 cycles: 170459075 heartbeat IPC: 0.662287 cumulative IPC: 0.550452 (Simulation time: 4 hr 23 min 11 sec) 
Heartbeat CPU 0 instructions: 103000001 cycles: 171969241 heartbeat IPC: 0.662178 cumulative IPC: 0.551452 (Simulation time: 4 hr 25 min 17 sec) 
Heartbeat CPU 0 instructions: 104000000 cycles: 174114370 heartbeat IPC: 0.466172 cumulative IPC: 0.550381 (Simulation time: 4 hr 27 min 33 sec) 
Heartbeat CPU 0 instructions: 105000000 cycles: 176369971 heartbeat IPC: 0.443341 cumulative IPC: 0.548986 (Simulation time: 4 hr 29 min 22 sec) 
Heartbeat CPU 0 instructions: 106000000 cycles: 178740109 heartbeat IPC: 0.421916 cumulative IPC: 0.547269 (Simulation time: 4 hr 31 min 9 sec) 
Heartbeat CPU 0 instructions: 107000000 cycles: 181214722 heartbeat IPC: 0.404104 cumulative IPC: 0.545278 (Simulation time: 4 hr 33 min 0 sec) 
Heartbeat CPU 0 instructions: 108000000 cycles: 183706538 heartbeat IPC: 0.401314 cumulative IPC: 0.543289 (Simulation time: 4 hr 34 min 42 sec) 
Heartbeat CPU 0 instructions: 109000000 cycles: 186219547 heartbeat IPC: 0.397929 cumulative IPC: 0.541292 (Simulation time: 4 hr 36 min 18 sec) 
Heartbeat CPU 0 instructions: 110000000 cycles: 188711295 heartbeat IPC: 0.401325 cumulative IPC: 0.53941 (Simulation time: 4 hr 37 min 56 sec) 
Finished CPU 0 instructions: 100000001 cycles: 185387612 cummulative IPC: 0.53941 (Simulation time: 4 hr 37 min 56 sec) 

ChampSim completed all CPUs

Region of Interest Statistics

CPU 0 cummulative IPC: 0.53941 instructions: 100000001 cycles: 185387612
LLC TOTAL     ACCESS:    4917135  HIT:     426168  MISS:    4490967
LLC LOAD      ACCESS:    1163147  HIT:          0  MISS:    1163147
LLC RFO       ACCESS:         24  HIT:          0  MISS:         24
LLC PREFETCH  ACCESS:    2227265  HIT:          0  MISS:    2227265
LLC WRITEBACK ACCESS:    1526699  HIT:     426168  MISS:    1100531
Insertion Distribution: 
	LOAD 0 0 300286 867209 
	RFO 0 0 28 0 
	PREF 0 0 647897 1852018 
	WRITEBACK 0 0 0 1110274 
Total Prefetch Downgrades: 0
