
*** ChampSim Multicore Out-of-Order Simulator ***

Warmup Instructions: 10000000
Simulation Instructions: 100000000
Configuration: 2
Number of CPUs: 1
LLC sets: 2048
LLC ways: 16
Off-chip DRAM Channels: 1 Width: 64-bit Data Rate: 1600 MT/s

CPU 0 runs /datasets/cs240c-wi22-a00-public/data/Assignment2-gz/calculix_2655B.trace.gz
CPU 0 L1D next line prefetcher
CPU 0 L2C IP-based stride prefetcher
Initialize SRRIP state
Heartbeat CPU 0 instructions: 1000003 cycles: 392383 heartbeat IPC: 2.54854 cumulative IPC: 2.54854 (Simulation time: 0 hr 1 min 56 sec) 
Heartbeat CPU 0 instructions: 2000001 cycles: 785148 heartbeat IPC: 2.54605 cumulative IPC: 2.54729 (Simulation time: 0 hr 4 min 2 sec) 
Heartbeat CPU 0 instructions: 3000002 cycles: 1177684 heartbeat IPC: 2.54754 cumulative IPC: 2.54737 (Simulation time: 0 hr 6 min 6 sec) 
Heartbeat CPU 0 instructions: 4000000 cycles: 1569447 heartbeat IPC: 2.55256 cumulative IPC: 2.54867 (Simulation time: 0 hr 8 min 6 sec) 
Heartbeat CPU 0 instructions: 5000003 cycles: 1961684 heartbeat IPC: 2.54949 cumulative IPC: 2.54883 (Simulation time: 0 hr 10 min 4 sec) 
Heartbeat CPU 0 instructions: 6000003 cycles: 2353797 heartbeat IPC: 2.55029 cumulative IPC: 2.54907 (Simulation time: 0 hr 12 min 4 sec) 
Heartbeat CPU 0 instructions: 7000002 cycles: 2745952 heartbeat IPC: 2.55001 cumulative IPC: 2.54921 (Simulation time: 0 hr 13 min 55 sec) 
Heartbeat CPU 0 instructions: 8000000 cycles: 3137922 heartbeat IPC: 2.55121 cumulative IPC: 2.54946 (Simulation time: 0 hr 16 min 3 sec) 
Heartbeat CPU 0 instructions: 9000001 cycles: 3530092 heartbeat IPC: 2.54992 cumulative IPC: 2.54951 (Simulation time: 0 hr 18 min 17 sec) 
Heartbeat CPU 0 instructions: 10000000 cycles: 3921567 heartbeat IPC: 2.55444 cumulative IPC: 2.55 (Simulation time: 0 hr 20 min 14 sec) 

Warmup complete CPU 0 instructions: 10000004 cycles: 3921568 (Simulation time: 0 hr 20 min 14 sec) 

Heartbeat CPU 0 instructions: 11000001 cycles: 4354283 heartbeat IPC: 2.31099 cumulative IPC: 2.31098 (Simulation time: 0 hr 22 min 23 sec) 
Heartbeat CPU 0 instructions: 12000000 cycles: 4782148 heartbeat IPC: 2.33718 cumulative IPC: 2.32401 (Simulation time: 0 hr 24 min 45 sec) 
Heartbeat CPU 0 instructions: 13000000 cycles: 5209917 heartbeat IPC: 2.33771 cumulative IPC: 2.32856 (Simulation time: 0 hr 26 min 56 sec) 
Heartbeat CPU 0 instructions: 14000002 cycles: 5637401 heartbeat IPC: 2.33927 cumulative IPC: 2.33123 (Simulation time: 0 hr 29 min 1 sec) 
Heartbeat CPU 0 instructions: 15000001 cycles: 6061090 heartbeat IPC: 2.36022 cumulative IPC: 2.33697 (Simulation time: 0 hr 31 min 2 sec) 
Heartbeat CPU 0 instructions: 16000000 cycles: 6645636 heartbeat IPC: 1.71073 cumulative IPC: 2.20259 (Simulation time: 0 hr 33 min 25 sec) 
Heartbeat CPU 0 instructions: 17000000 cycles: 7074358 heartbeat IPC: 2.33251 cumulative IPC: 2.22025 (Simulation time: 0 hr 35 min 44 sec) 
Heartbeat CPU 0 instructions: 18000000 cycles: 7502865 heartbeat IPC: 2.33368 cumulative IPC: 2.23383 (Simulation time: 0 hr 37 min 53 sec) 
Heartbeat CPU 0 instructions: 19000000 cycles: 7929684 heartbeat IPC: 2.34291 cumulative IPC: 2.24544 (Simulation time: 0 hr 40 min 1 sec) 
Heartbeat CPU 0 instructions: 20000000 cycles: 8356749 heartbeat IPC: 2.34156 cumulative IPC: 2.2547 (Simulation time: 0 hr 42 min 12 sec) 
Heartbeat CPU 0 instructions: 21000002 cycles: 8782681 heartbeat IPC: 2.3478 cumulative IPC: 2.26286 (Simulation time: 0 hr 44 min 4 sec) 
Heartbeat CPU 0 instructions: 22000001 cycles: 9372080 heartbeat IPC: 1.69664 cumulative IPC: 2.20163 (Simulation time: 0 hr 46 min 16 sec) 
Heartbeat CPU 0 instructions: 23000000 cycles: 9797679 heartbeat IPC: 2.34963 cumulative IPC: 2.21235 (Simulation time: 0 hr 48 min 23 sec) 
Heartbeat CPU 0 instructions: 24000000 cycles: 10222873 heartbeat IPC: 2.35187 cumulative IPC: 2.22176 (Simulation time: 0 hr 50 min 32 sec) 
Heartbeat CPU 0 instructions: 25000003 cycles: 10648079 heartbeat IPC: 2.35181 cumulative IPC: 2.22998 (Simulation time: 0 hr 52 min 37 sec) 
Heartbeat CPU 0 instructions: 26000003 cycles: 11072605 heartbeat IPC: 2.35557 cumulative IPC: 2.23744 (Simulation time: 0 hr 54 min 32 sec) 
Heartbeat CPU 0 instructions: 27000000 cycles: 11524591 heartbeat IPC: 2.21245 cumulative IPC: 2.23595 (Simulation time: 0 hr 56 min 26 sec) 
Heartbeat CPU 0 instructions: 28000000 cycles: 12090643 heartbeat IPC: 1.76662 cumulative IPC: 2.20343 (Simulation time: 0 hr 58 min 35 sec) 
Heartbeat CPU 0 instructions: 29000003 cycles: 12514470 heartbeat IPC: 2.35946 cumulative IPC: 2.21113 (Simulation time: 1 hr 0 min 33 sec) 
Heartbeat CPU 0 instructions: 30000003 cycles: 12939744 heartbeat IPC: 2.35143 cumulative IPC: 2.21774 (Simulation time: 1 hr 2 min 35 sec) 
Heartbeat CPU 0 instructions: 31000002 cycles: 13365023 heartbeat IPC: 2.3514 cumulative IPC: 2.22376 (Simulation time: 1 hr 4 min 37 sec) 
Heartbeat CPU 0 instructions: 32000000 cycles: 13789180 heartbeat IPC: 2.35761 cumulative IPC: 2.22952 (Simulation time: 1 hr 6 min 38 sec) 
Heartbeat CPU 0 instructions: 33000003 cycles: 14282164 heartbeat IPC: 2.02847 cumulative IPC: 2.21995 (Simulation time: 1 hr 8 min 41 sec) 
Heartbeat CPU 0 instructions: 34000002 cycles: 14854223 heartbeat IPC: 1.74807 cumulative IPC: 2.19526 (Simulation time: 1 hr 10 min 45 sec) 
Heartbeat CPU 0 instructions: 35000001 cycles: 15296994 heartbeat IPC: 2.2585 cumulative IPC: 2.19772 (Simulation time: 1 hr 12 min 36 sec) 
Heartbeat CPU 0 instructions: 36000000 cycles: 15729571 heartbeat IPC: 2.31172 cumulative IPC: 2.2019 (Simulation time: 1 hr 14 min 28 sec) 
Heartbeat CPU 0 instructions: 37000002 cycles: 16160744 heartbeat IPC: 2.31926 cumulative IPC: 2.20603 (Simulation time: 1 hr 16 min 28 sec) 
Heartbeat CPU 0 instructions: 38000002 cycles: 16587019 heartbeat IPC: 2.3459 cumulative IPC: 2.21074 (Simulation time: 1 hr 18 min 21 sec) 
Heartbeat CPU 0 instructions: 39000002 cycles: 17155654 heartbeat IPC: 1.7586 cumulative IPC: 2.19131 (Simulation time: 1 hr 20 min 37 sec) 
Heartbeat CPU 0 instructions: 40000000 cycles: 17636126 heartbeat IPC: 2.08128 cumulative IPC: 2.18746 (Simulation time: 1 hr 22 min 33 sec) 
Heartbeat CPU 0 instructions: 41000003 cycles: 18126204 heartbeat IPC: 2.0405 cumulative IPC: 2.18239 (Simulation time: 1 hr 24 min 26 sec) 
Heartbeat CPU 0 instructions: 42000001 cycles: 18634344 heartbeat IPC: 1.96796 cumulative IPC: 2.17498 (Simulation time: 1 hr 26 min 19 sec) 
Heartbeat CPU 0 instructions: 43000001 cycles: 19159730 heartbeat IPC: 1.90336 cumulative IPC: 2.16562 (Simulation time: 1 hr 28 min 26 sec) 
Heartbeat CPU 0 instructions: 44000000 cycles: 19875852 heartbeat IPC: 1.39641 cumulative IPC: 2.13109 (Simulation time: 1 hr 30 min 34 sec) 
Heartbeat CPU 0 instructions: 45000002 cycles: 20331249 heartbeat IPC: 2.19589 cumulative IPC: 2.13289 (Simulation time: 1 hr 32 min 35 sec) 
Heartbeat CPU 0 instructions: 46000002 cycles: 20841333 heartbeat IPC: 1.96046 cumulative IPC: 2.12769 (Simulation time: 1 hr 34 min 39 sec) 
Heartbeat CPU 0 instructions: 47000000 cycles: 21297379 heartbeat IPC: 2.19276 cumulative IPC: 2.1294 (Simulation time: 1 hr 36 min 30 sec) 
Heartbeat CPU 0 instructions: 48000000 cycles: 21808624 heartbeat IPC: 1.95601 cumulative IPC: 2.12444 (Simulation time: 1 hr 38 min 25 sec) 
Heartbeat CPU 0 instructions: 49000000 cycles: 22250669 heartbeat IPC: 2.26221 cumulative IPC: 2.12776 (Simulation time: 1 hr 40 min 22 sec) 
Heartbeat CPU 0 instructions: 50000002 cycles: 22732421 heartbeat IPC: 2.07576 cumulative IPC: 2.12643 (Simulation time: 1 hr 42 min 21 sec) 
Heartbeat CPU 0 instructions: 51000001 cycles: 23211109 heartbeat IPC: 2.08904 cumulative IPC: 2.1255 (Simulation time: 1 hr 44 min 23 sec) 
Heartbeat CPU 0 instructions: 52000000 cycles: 23645666 heartbeat IPC: 2.30119 cumulative IPC: 2.12937 (Simulation time: 1 hr 46 min 16 sec) 
Heartbeat CPU 0 instructions: 53000002 cycles: 24176949 heartbeat IPC: 1.88224 cumulative IPC: 2.12289 (Simulation time: 1 hr 48 min 21 sec) 
Heartbeat CPU 0 instructions: 54000002 cycles: 24972589 heartbeat IPC: 1.25685 cumulative IPC: 2.09016 (Simulation time: 1 hr 50 min 28 sec) 
Heartbeat CPU 0 instructions: 55000002 cycles: 25474002 heartbeat IPC: 1.99436 cumulative IPC: 2.08793 (Simulation time: 1 hr 52 min 24 sec) 
Heartbeat CPU 0 instructions: 56000000 cycles: 25918946 heartbeat IPC: 2.24747 cumulative IPC: 2.09116 (Simulation time: 1 hr 54 min 14 sec) 
Heartbeat CPU 0 instructions: 57000000 cycles: 26437024 heartbeat IPC: 1.93021 cumulative IPC: 2.08745 (Simulation time: 1 hr 56 min 9 sec) 
Heartbeat CPU 0 instructions: 58000003 cycles: 26878409 heartbeat IPC: 2.2656 cumulative IPC: 2.09088 (Simulation time: 1 hr 58 min 4 sec) 
Heartbeat CPU 0 instructions: 59000001 cycles: 27394254 heartbeat IPC: 1.93856 cumulative IPC: 2.08753 (Simulation time: 2 hr 0 min 0 sec) 
Heartbeat CPU 0 instructions: 60000000 cycles: 27852817 heartbeat IPC: 2.18072 cumulative IPC: 2.08932 (Simulation time: 2 hr 1 min 53 sec) 
Heartbeat CPU 0 instructions: 61000002 cycles: 28327396 heartbeat IPC: 2.10714 cumulative IPC: 2.08966 (Simulation time: 2 hr 3 min 54 sec) 
Heartbeat CPU 0 instructions: 62000003 cycles: 28846945 heartbeat IPC: 1.92475 cumulative IPC: 2.08623 (Simulation time: 2 hr 6 min 1 sec) 
Heartbeat CPU 0 instructions: 63000003 cycles: 29523586 heartbeat IPC: 1.47789 cumulative IPC: 2.07015 (Simulation time: 2 hr 7 min 57 sec) 
Heartbeat CPU 0 instructions: 64000000 cycles: 30013051 heartbeat IPC: 2.04304 cumulative IPC: 2.06964 (Simulation time: 2 hr 9 min 52 sec) 
Heartbeat CPU 0 instructions: 65000001 cycles: 30541675 heartbeat IPC: 1.89171 cumulative IPC: 2.06611 (Simulation time: 2 hr 11 min 57 sec) 
Heartbeat CPU 0 instructions: 66000001 cycles: 31193657 heartbeat IPC: 1.53378 cumulative IPC: 2.05338 (Simulation time: 2 hr 13 min 55 sec) 
Heartbeat CPU 0 instructions: 67000002 cycles: 31758871 heartbeat IPC: 1.76924 cumulative IPC: 2.04761 (Simulation time: 2 hr 16 min 6 sec) 
Heartbeat CPU 0 instructions: 68000000 cycles: 32273543 heartbeat IPC: 1.94298 cumulative IPC: 2.04571 (Simulation time: 2 hr 18 min 8 sec) 
Heartbeat CPU 0 instructions: 69000002 cycles: 32744061 heartbeat IPC: 2.12532 cumulative IPC: 2.04701 (Simulation time: 2 hr 20 min 3 sec) 
Heartbeat CPU 0 instructions: 70000002 cycles: 33210119 heartbeat IPC: 2.14566 cumulative IPC: 2.04858 (Simulation time: 2 hr 22 min 1 sec) 
Heartbeat CPU 0 instructions: 71000003 cycles: 33676896 heartbeat IPC: 2.14235 cumulative IPC: 2.05005 (Simulation time: 2 hr 23 min 58 sec) 
Heartbeat CPU 0 instructions: 72000000 cycles: 34142959 heartbeat IPC: 2.14563 cumulative IPC: 2.05153 (Simulation time: 2 hr 25 min 43 sec) 
Heartbeat CPU 0 instructions: 73000000 cycles: 34605701 heartbeat IPC: 2.16103 cumulative IPC: 2.05318 (Simulation time: 2 hr 27 min 43 sec) 
Heartbeat CPU 0 instructions: 74000000 cycles: 35069053 heartbeat IPC: 2.15819 cumulative IPC: 2.05474 (Simulation time: 2 hr 29 min 41 sec) 
Heartbeat CPU 0 instructions: 75000000 cycles: 35648359 heartbeat IPC: 1.7262 cumulative IPC: 2.04874 (Simulation time: 2 hr 31 min 47 sec) 
Heartbeat CPU 0 instructions: 76000000 cycles: 36211749 heartbeat IPC: 1.77497 cumulative IPC: 2.04396 (Simulation time: 2 hr 33 min 40 sec) 
Heartbeat CPU 0 instructions: 77000003 cycles: 36719441 heartbeat IPC: 1.9697 cumulative IPC: 2.04282 (Simulation time: 2 hr 35 min 36 sec) 
Heartbeat CPU 0 instructions: 78000002 cycles: 37181888 heartbeat IPC: 2.16241 cumulative IPC: 2.04448 (Simulation time: 2 hr 37 min 34 sec) 
Heartbeat CPU 0 instructions: 79000003 cycles: 37639259 heartbeat IPC: 2.18641 cumulative IPC: 2.0464 (Simulation time: 2 hr 39 min 31 sec) 
Heartbeat CPU 0 instructions: 80000000 cycles: 38092098 heartbeat IPC: 2.20828 cumulative IPC: 2.04855 (Simulation time: 2 hr 41 min 30 sec) 
Heartbeat CPU 0 instructions: 81000001 cycles: 38545754 heartbeat IPC: 2.20432 cumulative IPC: 2.05059 (Simulation time: 2 hr 43 min 27 sec) 
Heartbeat CPU 0 instructions: 82000001 cycles: 38996051 heartbeat IPC: 2.22076 cumulative IPC: 2.05277 (Simulation time: 2 hr 45 min 19 sec) 
Heartbeat CPU 0 instructions: 83000000 cycles: 39447996 heartbeat IPC: 2.21266 cumulative IPC: 2.05481 (Simulation time: 2 hr 47 min 43 sec) 
Heartbeat CPU 0 instructions: 84000000 cycles: 39978256 heartbeat IPC: 1.88587 cumulative IPC: 2.05232 (Simulation time: 2 hr 50 min 1 sec) 
Heartbeat CPU 0 instructions: 85000002 cycles: 40511812 heartbeat IPC: 1.87422 cumulative IPC: 2.04973 (Simulation time: 2 hr 52 min 4 sec) 
Heartbeat CPU 0 instructions: 86000001 cycles: 41221353 heartbeat IPC: 1.40936 cumulative IPC: 2.03755 (Simulation time: 2 hr 54 min 11 sec) 
Heartbeat CPU 0 instructions: 87000001 cycles: 41792077 heartbeat IPC: 1.75216 cumulative IPC: 2.03324 (Simulation time: 2 hr 56 min 12 sec) 
Heartbeat CPU 0 instructions: 88000000 cycles: 42227684 heartbeat IPC: 2.29564 cumulative IPC: 2.03623 (Simulation time: 2 hr 58 min 8 sec) 
Heartbeat CPU 0 instructions: 89000000 cycles: 42661391 heartbeat IPC: 2.3057 cumulative IPC: 2.03925 (Simulation time: 3 hr 0 min 10 sec) 
Heartbeat CPU 0 instructions: 90000001 cycles: 43098236 heartbeat IPC: 2.28914 cumulative IPC: 2.04203 (Simulation time: 3 hr 1 min 57 sec) 
Heartbeat CPU 0 instructions: 91000002 cycles: 43627965 heartbeat IPC: 1.88776 cumulative IPC: 2.03997 (Simulation time: 3 hr 3 min 49 sec) 
Heartbeat CPU 0 instructions: 92000000 cycles: 44102760 heartbeat IPC: 2.10617 cumulative IPC: 2.04076 (Simulation time: 3 hr 5 min 45 sec) 
Heartbeat CPU 0 instructions: 93000000 cycles: 44542144 heartbeat IPC: 2.27591 cumulative IPC: 2.0433 (Simulation time: 3 hr 7 min 51 sec) 
Heartbeat CPU 0 instructions: 94000001 cycles: 44976581 heartbeat IPC: 2.30183 cumulative IPC: 2.04604 (Simulation time: 3 hr 9 min 49 sec) 
Heartbeat CPU 0 instructions: 95000003 cycles: 45491741 heartbeat IPC: 1.94115 cumulative IPC: 2.04474 (Simulation time: 3 hr 11 min 44 sec) 
Heartbeat CPU 0 instructions: 96000000 cycles: 45938722 heartbeat IPC: 2.23722 cumulative IPC: 2.04678 (Simulation time: 3 hr 13 min 40 sec) 
Heartbeat CPU 0 instructions: 97000002 cycles: 46374875 heartbeat IPC: 2.29278 cumulative IPC: 2.04931 (Simulation time: 3 hr 15 min 30 sec) 
Heartbeat CPU 0 instructions: 98000000 cycles: 46804597 heartbeat IPC: 2.32708 cumulative IPC: 2.05209 (Simulation time: 3 hr 17 min 30 sec) 
Heartbeat CPU 0 instructions: 99000001 cycles: 47309810 heartbeat IPC: 1.97937 cumulative IPC: 2.05125 (Simulation time: 3 hr 19 min 28 sec) 
Heartbeat CPU 0 instructions: 100000000 cycles: 47764316 heartbeat IPC: 2.20019 cumulative IPC: 2.05279 (Simulation time: 3 hr 21 min 21 sec) 
Heartbeat CPU 0 instructions: 101000001 cycles: 48195447 heartbeat IPC: 2.31948 cumulative IPC: 2.05539 (Simulation time: 3 hr 23 min 15 sec) 
Heartbeat CPU 0 instructions: 102000003 cycles: 48624506 heartbeat IPC: 2.33069 cumulative IPC: 2.05803 (Simulation time: 3 hr 25 min 12 sec) 
Heartbeat CPU 0 instructions: 103000003 cycles: 49122938 heartbeat IPC: 2.00629 cumulative IPC: 2.05746 (Simulation time: 3 hr 27 min 11 sec) 
Heartbeat CPU 0 instructions: 104000000 cycles: 49669217 heartbeat IPC: 1.83056 cumulative IPC: 2.05475 (Simulation time: 3 hr 29 min 7 sec) 
Heartbeat CPU 0 instructions: 105000001 cycles: 50089320 heartbeat IPC: 2.38037 cumulative IPC: 2.05771 (Simulation time: 3 hr 31 min 0 sec) 
Heartbeat CPU 0 instructions: 106000002 cycles: 50535247 heartbeat IPC: 2.24252 cumulative IPC: 2.05948 (Simulation time: 3 hr 33 min 1 sec) 
Heartbeat CPU 0 instructions: 107000001 cycles: 50987220 heartbeat IPC: 2.21252 cumulative IPC: 2.06095 (Simulation time: 3 hr 34 min 58 sec) 
Heartbeat CPU 0 instructions: 108000000 cycles: 51406217 heartbeat IPC: 2.38665 cumulative IPC: 2.06382 (Simulation time: 3 hr 36 min 53 sec) 
Heartbeat CPU 0 instructions: 109000000 cycles: 51881727 heartbeat IPC: 2.10301 cumulative IPC: 2.06421 (Simulation time: 3 hr 38 min 50 sec) 
Heartbeat CPU 0 instructions: 110000000 cycles: 52300438 heartbeat IPC: 2.38828 cumulative IPC: 2.06702 (Simulation time: 3 hr 40 min 42 sec) 
Finished CPU 0 instructions: 100000000 cycles: 48378871 cummulative IPC: 2.06702 (Simulation time: 3 hr 40 min 42 sec) 

ChampSim completed all CPUs

Region of Interest Statistics

CPU 0 cummulative IPC: 2.06702 instructions: 100000000 cycles: 48378871
LLC TOTAL     ACCESS:     865122  HIT:     715645  MISS:     149477
LLC LOAD      ACCESS:     110511  HIT:      92976  MISS:      17535
LLC RFO       ACCESS:        417  HIT:        411  MISS:          6
LLC PREFETCH  ACCESS:     655882  HIT:     528006  MISS:     127876
LLC WRITEBACK ACCESS:      98312  HIT:      94252  MISS:       4060
Insertion Distribution: 
	LOAD 10671 0 9281 306 
	RFO 0 0 13 0 
	PREF 0 14187 78601 53324 
	WRITEBACK 0 0 0 4082 
Total Prefetch Downgrades: 2839
