
*** ChampSim Multicore Out-of-Order Simulator ***

Warmup Instructions: 10000000
Simulation Instructions: 100000000
Configuration: 2
Number of CPUs: 1
LLC sets: 2048
LLC ways: 16
Off-chip DRAM Channels: 1 Width: 64-bit Data Rate: 1600 MT/s

CPU 0 runs /datasets/cs240c-wi22-a00-public/data/Assignment2-gz/bzip2_259B.trace.gz
CPU 0 L1D next line prefetcher
CPU 0 L2C IP-based stride prefetcher
Initialize SRRIP state
Heartbeat CPU 0 instructions: 1000002 cycles: 428875 heartbeat IPC: 2.33169 cumulative IPC: 2.33169 (Simulation time: 0 hr 2 min 41 sec) 
Heartbeat CPU 0 instructions: 2000003 cycles: 861057 heartbeat IPC: 2.31384 cumulative IPC: 2.32273 (Simulation time: 0 hr 5 min 24 sec) 
Heartbeat CPU 0 instructions: 3000001 cycles: 1286790 heartbeat IPC: 2.34889 cumulative IPC: 2.33138 (Simulation time: 0 hr 8 min 4 sec) 
Heartbeat CPU 0 instructions: 4000000 cycles: 1685062 heartbeat IPC: 2.51084 cumulative IPC: 2.3738 (Simulation time: 0 hr 10 min 34 sec) 
Heartbeat CPU 0 instructions: 5000001 cycles: 2103495 heartbeat IPC: 2.38987 cumulative IPC: 2.377 (Simulation time: 0 hr 13 min 17 sec) 
Heartbeat CPU 0 instructions: 6000001 cycles: 2532858 heartbeat IPC: 2.32903 cumulative IPC: 2.36887 (Simulation time: 0 hr 15 min 58 sec) 
Heartbeat CPU 0 instructions: 7000003 cycles: 2961906 heartbeat IPC: 2.33075 cumulative IPC: 2.36334 (Simulation time: 0 hr 18 min 44 sec) 
Heartbeat CPU 0 instructions: 8000000 cycles: 3391719 heartbeat IPC: 2.32659 cumulative IPC: 2.35869 (Simulation time: 0 hr 21 min 34 sec) 
Heartbeat CPU 0 instructions: 9000000 cycles: 3819845 heartbeat IPC: 2.33576 cumulative IPC: 2.35612 (Simulation time: 0 hr 24 min 21 sec) 
Heartbeat CPU 0 instructions: 10000002 cycles: 4193917 heartbeat IPC: 2.67329 cumulative IPC: 2.38441 (Simulation time: 0 hr 26 min 39 sec) 

Warmup complete CPU 0 instructions: 10000002 cycles: 4193917 (Simulation time: 0 hr 26 min 39 sec) 

Heartbeat CPU 0 instructions: 11000002 cycles: 5033300 heartbeat IPC: 1.19135 cumulative IPC: 1.19135 (Simulation time: 0 hr 29 min 14 sec) 
Heartbeat CPU 0 instructions: 12000000 cycles: 6140848 heartbeat IPC: 0.902894 cumulative IPC: 1.02726 (Simulation time: 0 hr 32 min 6 sec) 
Heartbeat CPU 0 instructions: 13000002 cycles: 7083980 heartbeat IPC: 1.0603 cumulative IPC: 1.03804 (Simulation time: 0 hr 35 min 13 sec) 
Heartbeat CPU 0 instructions: 14000003 cycles: 8001535 heartbeat IPC: 1.08985 cumulative IPC: 1.05053 (Simulation time: 0 hr 38 min 19 sec) 
Heartbeat CPU 0 instructions: 15000002 cycles: 9031317 heartbeat IPC: 0.971078 cumulative IPC: 1.03361 (Simulation time: 0 hr 41 min 17 sec) 
Heartbeat CPU 0 instructions: 16000000 cycles: 10039031 heartbeat IPC: 0.992343 cumulative IPC: 1.0265 (Simulation time: 0 hr 44 min 20 sec) 
Heartbeat CPU 0 instructions: 17000002 cycles: 11176753 heartbeat IPC: 0.878951 cumulative IPC: 1.00246 (Simulation time: 0 hr 47 min 23 sec) 
Heartbeat CPU 0 instructions: 18000001 cycles: 12274644 heartbeat IPC: 0.910836 cumulative IPC: 0.99001 (Simulation time: 0 hr 50 min 24 sec) 
Heartbeat CPU 0 instructions: 19000003 cycles: 13243143 heartbeat IPC: 1.03253 cumulative IPC: 0.99456 (Simulation time: 0 hr 53 min 5 sec) 
Heartbeat CPU 0 instructions: 20000000 cycles: 14239013 heartbeat IPC: 1.00414 cumulative IPC: 0.99551 (Simulation time: 0 hr 55 min 34 sec) 
Heartbeat CPU 0 instructions: 21000001 cycles: 15148838 heartbeat IPC: 1.09911 cumulative IPC: 1.00411 (Simulation time: 0 hr 58 min 13 sec) 
Heartbeat CPU 0 instructions: 22000001 cycles: 16062412 heartbeat IPC: 1.0946 cumulative IPC: 1.01108 (Simulation time: 1 hr 0 min 40 sec) 
Heartbeat CPU 0 instructions: 23000002 cycles: 16969522 heartbeat IPC: 1.1024 cumulative IPC: 1.01756 (Simulation time: 1 hr 3 min 2 sec) 
Heartbeat CPU 0 instructions: 24000000 cycles: 17874904 heartbeat IPC: 1.1045 cumulative IPC: 1.02332 (Simulation time: 1 hr 5 min 29 sec) 
Heartbeat CPU 0 instructions: 25000000 cycles: 18776596 heartbeat IPC: 1.10903 cumulative IPC: 1.02862 (Simulation time: 1 hr 7 min 41 sec) 
Heartbeat CPU 0 instructions: 26000000 cycles: 19713252 heartbeat IPC: 1.06763 cumulative IPC: 1.03097 (Simulation time: 1 hr 10 min 3 sec) 
Heartbeat CPU 0 instructions: 27000003 cycles: 20659846 heartbeat IPC: 1.05642 cumulative IPC: 1.03243 (Simulation time: 1 hr 12 min 34 sec) 
Heartbeat CPU 0 instructions: 28000000 cycles: 21574409 heartbeat IPC: 1.09342 cumulative IPC: 1.03564 (Simulation time: 1 hr 15 min 1 sec) 
Heartbeat CPU 0 instructions: 29000000 cycles: 22480538 heartbeat IPC: 1.1036 cumulative IPC: 1.03901 (Simulation time: 1 hr 17 min 30 sec) 
Heartbeat CPU 0 instructions: 30000000 cycles: 23458581 heartbeat IPC: 1.02245 cumulative IPC: 1.03817 (Simulation time: 1 hr 20 min 3 sec) 
Heartbeat CPU 0 instructions: 31000001 cycles: 24364197 heartbeat IPC: 1.10422 cumulative IPC: 1.04114 (Simulation time: 1 hr 22 min 24 sec) 
Heartbeat CPU 0 instructions: 32000000 cycles: 25256921 heartbeat IPC: 1.12017 cumulative IPC: 1.04449 (Simulation time: 1 hr 24 min 41 sec) 
Heartbeat CPU 0 instructions: 33000002 cycles: 26408785 heartbeat IPC: 0.86816 cumulative IPC: 1.03534 (Simulation time: 1 hr 27 min 8 sec) 
Heartbeat CPU 0 instructions: 34000003 cycles: 27647387 heartbeat IPC: 0.807363 cumulative IPC: 1.0233 (Simulation time: 1 hr 29 min 49 sec) 
Heartbeat CPU 0 instructions: 35000001 cycles: 28695961 heartbeat IPC: 0.953674 cumulative IPC: 1.02032 (Simulation time: 1 hr 32 min 22 sec) 
Heartbeat CPU 0 instructions: 36000000 cycles: 29868550 heartbeat IPC: 0.852813 cumulative IPC: 1.01267 (Simulation time: 1 hr 34 min 47 sec) 
Heartbeat CPU 0 instructions: 37000002 cycles: 30911563 heartbeat IPC: 0.958763 cumulative IPC: 1.01057 (Simulation time: 1 hr 36 min 54 sec) 
Heartbeat CPU 0 instructions: 38000003 cycles: 32026357 heartbeat IPC: 0.897028 cumulative IPC: 1.00602 (Simulation time: 1 hr 39 min 19 sec) 
Heartbeat CPU 0 instructions: 39000001 cycles: 33170329 heartbeat IPC: 0.874146 cumulative IPC: 1.00081 (Simulation time: 1 hr 41 min 45 sec) 
Heartbeat CPU 0 instructions: 40000000 cycles: 34239451 heartbeat IPC: 0.935346 cumulative IPC: 0.998484 (Simulation time: 1 hr 44 min 3 sec) 
Heartbeat CPU 0 instructions: 41000001 cycles: 35428943 heartbeat IPC: 0.840696 cumulative IPC: 0.992476 (Simulation time: 1 hr 46 min 13 sec) 
Heartbeat CPU 0 instructions: 42000000 cycles: 36638475 heartbeat IPC: 0.826765 cumulative IPC: 0.986298 (Simulation time: 1 hr 48 min 32 sec) 
Heartbeat CPU 0 instructions: 43000003 cycles: 37854987 heartbeat IPC: 0.822025 cumulative IPC: 0.980361 (Simulation time: 1 hr 50 min 53 sec) 
Heartbeat CPU 0 instructions: 44000000 cycles: 39068300 heartbeat IPC: 0.824187 cumulative IPC: 0.974928 (Simulation time: 1 hr 53 min 11 sec) 
Heartbeat CPU 0 instructions: 45000000 cycles: 40290040 heartbeat IPC: 0.818505 cumulative IPC: 0.969633 (Simulation time: 1 hr 55 min 24 sec) 
Heartbeat CPU 0 instructions: 46000002 cycles: 41529463 heartbeat IPC: 0.806829 cumulative IPC: 0.964229 (Simulation time: 1 hr 57 min 42 sec) 
Heartbeat CPU 0 instructions: 47000000 cycles: 42761030 heartbeat IPC: 0.811972 cumulative IPC: 0.959367 (Simulation time: 2 hr 0 min 2 sec) 
Heartbeat CPU 0 instructions: 48000000 cycles: 43999201 heartbeat IPC: 0.807643 cumulative IPC: 0.954647 (Simulation time: 2 hr 2 min 19 sec) 
Heartbeat CPU 0 instructions: 49000003 cycles: 45268680 heartbeat IPC: 0.787727 cumulative IPC: 0.949488 (Simulation time: 2 hr 4 min 41 sec) 
Heartbeat CPU 0 instructions: 50000001 cycles: 46307680 heartbeat IPC: 0.962462 cumulative IPC: 0.949808 (Simulation time: 2 hr 6 min 54 sec) 
Heartbeat CPU 0 instructions: 51000002 cycles: 47472003 heartbeat IPC: 0.858869 cumulative IPC: 0.947362 (Simulation time: 2 hr 9 min 13 sec) 
Heartbeat CPU 0 instructions: 52000000 cycles: 48590159 heartbeat IPC: 0.894328 cumulative IPC: 0.946026 (Simulation time: 2 hr 11 min 30 sec) 
Heartbeat CPU 0 instructions: 53000001 cycles: 49786376 heartbeat IPC: 0.83597 cumulative IPC: 0.943138 (Simulation time: 2 hr 13 min 49 sec) 
Heartbeat CPU 0 instructions: 54000000 cycles: 51011181 heartbeat IPC: 0.816456 cumulative IPC: 0.939824 (Simulation time: 2 hr 16 min 13 sec) 
Heartbeat CPU 0 instructions: 55000000 cycles: 52162785 heartbeat IPC: 0.868354 cumulative IPC: 0.938108 (Simulation time: 2 hr 18 min 29 sec) 
Heartbeat CPU 0 instructions: 56000000 cycles: 53387545 heartbeat IPC: 0.816486 cumulative IPC: 0.93508 (Simulation time: 2 hr 20 min 51 sec) 
Heartbeat CPU 0 instructions: 57000000 cycles: 54608600 heartbeat IPC: 0.818964 cumulative IPC: 0.932268 (Simulation time: 2 hr 23 min 0 sec) 
Heartbeat CPU 0 instructions: 58000002 cycles: 55641476 heartbeat IPC: 0.968172 cumulative IPC: 0.932989 (Simulation time: 2 hr 25 min 15 sec) 
Heartbeat CPU 0 instructions: 59000000 cycles: 56742375 heartbeat IPC: 0.908347 cumulative IPC: 0.932473 (Simulation time: 2 hr 27 min 36 sec) 
Heartbeat CPU 0 instructions: 60000000 cycles: 57922247 heartbeat IPC: 0.84755 cumulative IPC: 0.930608 (Simulation time: 2 hr 29 min 53 sec) 
Heartbeat CPU 0 instructions: 61000000 cycles: 59066581 heartbeat IPC: 0.873871 cumulative IPC: 0.929424 (Simulation time: 2 hr 32 min 18 sec) 
Heartbeat CPU 0 instructions: 62000002 cycles: 59911735 heartbeat IPC: 1.18322 cumulative IPC: 0.933274 (Simulation time: 2 hr 34 min 31 sec) 
Heartbeat CPU 0 instructions: 63000003 cycles: 60818311 heartbeat IPC: 1.10305 cumulative IPC: 0.935992 (Simulation time: 2 hr 37 min 4 sec) 
Heartbeat CPU 0 instructions: 64000000 cycles: 61906820 heartbeat IPC: 0.918685 cumulative IPC: 0.935666 (Simulation time: 2 hr 39 min 48 sec) 
Heartbeat CPU 0 instructions: 65000003 cycles: 62903753 heartbeat IPC: 1.00308 cumulative IPC: 0.936811 (Simulation time: 2 hr 42 min 39 sec) 
Heartbeat CPU 0 instructions: 66000003 cycles: 63864692 heartbeat IPC: 1.04065 cumulative IPC: 0.938483 (Simulation time: 2 hr 45 min 22 sec) 
Heartbeat CPU 0 instructions: 67000003 cycles: 64919096 heartbeat IPC: 0.948403 cumulative IPC: 0.938655 (Simulation time: 2 hr 47 min 58 sec) 
Heartbeat CPU 0 instructions: 68000000 cycles: 66004130 heartbeat IPC: 0.921627 cumulative IPC: 0.938356 (Simulation time: 2 hr 50 min 53 sec) 
Heartbeat CPU 0 instructions: 69000003 cycles: 67121013 heartbeat IPC: 0.895352 cumulative IPC: 0.937593 (Simulation time: 2 hr 53 min 49 sec) 
Heartbeat CPU 0 instructions: 70000003 cycles: 68385808 heartbeat IPC: 0.790642 cumulative IPC: 0.934698 (Simulation time: 2 hr 56 min 36 sec) 
Heartbeat CPU 0 instructions: 71000000 cycles: 69663680 heartbeat IPC: 0.782549 cumulative IPC: 0.931728 (Simulation time: 2 hr 59 min 27 sec) 
Heartbeat CPU 0 instructions: 72000000 cycles: 70824470 heartbeat IPC: 0.861482 cumulative IPC: 0.930504 (Simulation time: 3 hr 1 min 45 sec) 
Heartbeat CPU 0 instructions: 73000003 cycles: 72143621 heartbeat IPC: 0.758066 cumulative IPC: 0.927156 (Simulation time: 3 hr 4 min 7 sec) 
Heartbeat CPU 0 instructions: 74000001 cycles: 73376356 heartbeat IPC: 0.811203 cumulative IPC: 0.92509 (Simulation time: 3 hr 6 min 37 sec) 
Heartbeat CPU 0 instructions: 75000000 cycles: 74535075 heartbeat IPC: 0.863021 cumulative IPC: 0.924068 (Simulation time: 3 hr 9 min 21 sec) 
Heartbeat CPU 0 instructions: 76000000 cycles: 75617942 heartbeat IPC: 0.923474 cumulative IPC: 0.924059 (Simulation time: 3 hr 11 min 52 sec) 
Heartbeat CPU 0 instructions: 77000003 cycles: 76584296 heartbeat IPC: 1.03482 cumulative IPC: 0.925537 (Simulation time: 3 hr 14 min 19 sec) 
Heartbeat CPU 0 instructions: 78000000 cycles: 77549364 heartbeat IPC: 1.03619 cumulative IPC: 0.926993 (Simulation time: 3 hr 16 min 39 sec) 
Heartbeat CPU 0 instructions: 79000003 cycles: 78626820 heartbeat IPC: 0.928115 cumulative IPC: 0.927009 (Simulation time: 3 hr 19 min 5 sec) 
Heartbeat CPU 0 instructions: 80000000 cycles: 79868776 heartbeat IPC: 0.805179 cumulative IPC: 0.92501 (Simulation time: 3 hr 21 min 36 sec) 
Heartbeat CPU 0 instructions: 81000001 cycles: 81025274 heartbeat IPC: 0.86468 cumulative IPC: 0.924102 (Simulation time: 3 hr 24 min 18 sec) 
Heartbeat CPU 0 instructions: 82000000 cycles: 82140620 heartbeat IPC: 0.896582 cumulative IPC: 0.923708 (Simulation time: 3 hr 26 min 44 sec) 
Heartbeat CPU 0 instructions: 83000002 cycles: 83197041 heartbeat IPC: 0.946594 cumulative IPC: 0.924014 (Simulation time: 3 hr 29 min 14 sec) 
Heartbeat CPU 0 instructions: 84000000 cycles: 84142038 heartbeat IPC: 1.0582 cumulative IPC: 0.9256 (Simulation time: 3 hr 31 min 42 sec) 
Heartbeat CPU 0 instructions: 85000003 cycles: 85085070 heartbeat IPC: 1.06041 cumulative IPC: 0.927172 (Simulation time: 3 hr 34 min 17 sec) 
Heartbeat CPU 0 instructions: 86000003 cycles: 86128687 heartbeat IPC: 0.958206 cumulative IPC: 0.927567 (Simulation time: 3 hr 36 min 57 sec) 
Heartbeat CPU 0 instructions: 87000002 cycles: 87178478 heartbeat IPC: 0.95257 cumulative IPC: 0.927883 (Simulation time: 3 hr 39 min 31 sec) 
Heartbeat CPU 0 instructions: 88000000 cycles: 88283623 heartbeat IPC: 0.904857 cumulative IPC: 0.927581 (Simulation time: 3 hr 41 min 37 sec) 
Heartbeat CPU 0 instructions: 89000002 cycles: 89289991 heartbeat IPC: 0.993674 cumulative IPC: 0.928362 (Simulation time: 3 hr 43 min 45 sec) 
Heartbeat CPU 0 instructions: 90000001 cycles: 90412934 heartbeat IPC: 0.890516 cumulative IPC: 0.92787 (Simulation time: 3 hr 45 min 58 sec) 
Heartbeat CPU 0 instructions: 91000002 cycles: 91526544 heartbeat IPC: 0.897981 cumulative IPC: 0.927488 (Simulation time: 3 hr 48 min 7 sec) 
Heartbeat CPU 0 instructions: 92000000 cycles: 92565701 heartbeat IPC: 0.962317 cumulative IPC: 0.927898 (Simulation time: 3 hr 50 min 10 sec) 
Heartbeat CPU 0 instructions: 93000000 cycles: 93753245 heartbeat IPC: 0.842074 cumulative IPC: 0.92676 (Simulation time: 3 hr 52 min 14 sec) 
Heartbeat CPU 0 instructions: 94000003 cycles: 94929443 heartbeat IPC: 0.8502 cumulative IPC: 0.925767 (Simulation time: 3 hr 54 min 33 sec) 
Heartbeat CPU 0 instructions: 95000002 cycles: 96114412 heartbeat IPC: 0.843903 cumulative IPC: 0.924712 (Simulation time: 3 hr 56 min 48 sec) 
Heartbeat CPU 0 instructions: 96000000 cycles: 97284084 heartbeat IPC: 0.854939 cumulative IPC: 0.923835 (Simulation time: 3 hr 59 min 5 sec) 
Heartbeat CPU 0 instructions: 97000002 cycles: 98501006 heartbeat IPC: 0.821747 cumulative IPC: 0.922518 (Simulation time: 4 hr 1 min 14 sec) 
Heartbeat CPU 0 instructions: 98000000 cycles: 99734714 heartbeat IPC: 0.810563 cumulative IPC: 0.921072 (Simulation time: 4 hr 3 min 26 sec) 
Heartbeat CPU 0 instructions: 99000000 cycles: 100974692 heartbeat IPC: 0.806466 cumulative IPC: 0.919604 (Simulation time: 4 hr 5 min 44 sec) 
Heartbeat CPU 0 instructions: 100000000 cycles: 102216755 heartbeat IPC: 0.805112 cumulative IPC: 0.918153 (Simulation time: 4 hr 7 min 57 sec) 
Heartbeat CPU 0 instructions: 101000003 cycles: 103365089 heartbeat IPC: 0.870829 cumulative IPC: 0.917605 (Simulation time: 4 hr 10 min 3 sec) 
Heartbeat CPU 0 instructions: 102000000 cycles: 104484239 heartbeat IPC: 0.893533 cumulative IPC: 0.917337 (Simulation time: 4 hr 12 min 4 sec) 
Heartbeat CPU 0 instructions: 103000000 cycles: 105585594 heartbeat IPC: 0.907972 cumulative IPC: 0.917235 (Simulation time: 4 hr 14 min 3 sec) 
Heartbeat CPU 0 instructions: 104000000 cycles: 106738746 heartbeat IPC: 0.867188 cumulative IPC: 0.916672 (Simulation time: 4 hr 15 min 55 sec) 
Heartbeat CPU 0 instructions: 105000002 cycles: 107949946 heartbeat IPC: 0.825629 cumulative IPC: 0.915609 (Simulation time: 4 hr 17 min 45 sec) 
Heartbeat CPU 0 instructions: 106000001 cycles: 109083504 heartbeat IPC: 0.882177 cumulative IPC: 0.915248 (Simulation time: 4 hr 19 min 32 sec) 
Heartbeat CPU 0 instructions: 107000000 cycles: 110286329 heartbeat IPC: 0.831375 cumulative IPC: 0.914297 (Simulation time: 4 hr 21 min 15 sec) 
Heartbeat CPU 0 instructions: 108000000 cycles: 111485035 heartbeat IPC: 0.834233 cumulative IPC: 0.913403 (Simulation time: 4 hr 22 min 53 sec) 
Heartbeat CPU 0 instructions: 109000000 cycles: 112497532 heartbeat IPC: 0.987657 cumulative IPC: 0.914097 (Simulation time: 4 hr 24 min 27 sec) 
Heartbeat CPU 0 instructions: 110000000 cycles: 113659049 heartbeat IPC: 0.860943 cumulative IPC: 0.913533 (Simulation time: 4 hr 25 min 59 sec) 
Finished CPU 0 instructions: 100000002 cycles: 109465134 cummulative IPC: 0.913533 (Simulation time: 4 hr 25 min 59 sec) 

ChampSim completed all CPUs

Region of Interest Statistics

CPU 0 cummulative IPC: 0.913533 instructions: 100000002 cycles: 109465134
LLC TOTAL     ACCESS:    1373535  HIT:    1065750  MISS:     307785
LLC LOAD      ACCESS:     396210  HIT:     348293  MISS:      47917
LLC RFO       ACCESS:     104384  HIT:      42810  MISS:      61574
LLC PREFETCH  ACCESS:     675959  HIT:     506776  MISS:     169183
LLC WRITEBACK ACCESS:     196982  HIT:     167871  MISS:      29111
Insertion Distribution: 
	LOAD 39182 0 8249 632 
	RFO 15089 0 38127 24312 
	PREF 0 19401 84820 65442 
	WRITEBACK 0 0 0 29115 
Total Prefetch Downgrades: 32592
