
*** ChampSim Multicore Out-of-Order Simulator ***

Warmup Instructions: 10000000
Simulation Instructions: 100000000
Configuration: 2
Number of CPUs: 1
LLC sets: 2048
LLC ways: 16
Off-chip DRAM Channels: 1 Width: 64-bit Data Rate: 1600 MT/s

CPU 0 runs /datasets/cs240c-wi22-a00-public/data/Assignment2-gz/sphinx3_1339B.trace.gz
CPU 0 L1D next line prefetcher
CPU 0 L2C IP-based stride prefetcher
Initialize SRRIP state
Heartbeat CPU 0 instructions: 1000000 cycles: 339022 heartbeat IPC: 2.94966 cumulative IPC: 2.94966 (Simulation time: 0 hr 2 min 19 sec) 
Heartbeat CPU 0 instructions: 2000001 cycles: 693417 heartbeat IPC: 2.82171 cumulative IPC: 2.88427 (Simulation time: 0 hr 4 min 32 sec) 
Heartbeat CPU 0 instructions: 3000000 cycles: 1084463 heartbeat IPC: 2.55724 cumulative IPC: 2.76635 (Simulation time: 0 hr 6 min 52 sec) 
Heartbeat CPU 0 instructions: 4000000 cycles: 1529987 heartbeat IPC: 2.24455 cumulative IPC: 2.6144 (Simulation time: 0 hr 9 min 7 sec) 
Heartbeat CPU 0 instructions: 5000003 cycles: 1869002 heartbeat IPC: 2.94973 cumulative IPC: 2.67523 (Simulation time: 0 hr 11 min 23 sec) 
Heartbeat CPU 0 instructions: 6000002 cycles: 2253225 heartbeat IPC: 2.60265 cumulative IPC: 2.66285 (Simulation time: 0 hr 13 min 29 sec) 
Heartbeat CPU 0 instructions: 7000001 cycles: 2716994 heartbeat IPC: 2.15624 cumulative IPC: 2.57638 (Simulation time: 0 hr 15 min 45 sec) 
Heartbeat CPU 0 instructions: 8000000 cycles: 3055863 heartbeat IPC: 2.95099 cumulative IPC: 2.61792 (Simulation time: 0 hr 18 min 2 sec) 
Heartbeat CPU 0 instructions: 9000003 cycles: 3412473 heartbeat IPC: 2.80419 cumulative IPC: 2.63738 (Simulation time: 0 hr 20 min 7 sec) 
Heartbeat CPU 0 instructions: 10000001 cycles: 3799264 heartbeat IPC: 2.58537 cumulative IPC: 2.63209 (Simulation time: 0 hr 22 min 30 sec) 

Warmup complete CPU 0 instructions: 10000001 cycles: 3799264 (Simulation time: 0 hr 22 min 30 sec) 

Heartbeat CPU 0 instructions: 11000000 cycles: 4661091 heartbeat IPC: 1.16032 cumulative IPC: 1.16032 (Simulation time: 0 hr 24 min 53 sec) 
Heartbeat CPU 0 instructions: 12000000 cycles: 5481318 heartbeat IPC: 1.21917 cumulative IPC: 1.18902 (Simulation time: 0 hr 27 min 25 sec) 
Heartbeat CPU 0 instructions: 13000000 cycles: 6789232 heartbeat IPC: 0.764576 cumulative IPC: 1.00335 (Simulation time: 0 hr 29 min 47 sec) 
Heartbeat CPU 0 instructions: 14000000 cycles: 7655282 heartbeat IPC: 1.15467 cumulative IPC: 1.03734 (Simulation time: 0 hr 32 min 11 sec) 
Heartbeat CPU 0 instructions: 15000002 cycles: 8462372 heartbeat IPC: 1.23902 cumulative IPC: 1.07225 (Simulation time: 0 hr 34 min 26 sec) 
Heartbeat CPU 0 instructions: 16000000 cycles: 9507576 heartbeat IPC: 0.956749 cumulative IPC: 1.0511 (Simulation time: 0 hr 36 min 53 sec) 
Heartbeat CPU 0 instructions: 17000001 cycles: 10855303 heartbeat IPC: 0.741991 cumulative IPC: 0.992058 (Simulation time: 0 hr 39 min 25 sec) 
Heartbeat CPU 0 instructions: 18000003 cycles: 11921365 heartbeat IPC: 0.938034 cumulative IPC: 0.984967 (Simulation time: 0 hr 41 min 38 sec) 
Heartbeat CPU 0 instructions: 19000002 cycles: 12752079 heartbeat IPC: 1.20378 cumulative IPC: 1.00527 (Simulation time: 0 hr 43 min 50 sec) 
Heartbeat CPU 0 instructions: 20000000 cycles: 13573038 heartbeat IPC: 1.21809 cumulative IPC: 1.02315 (Simulation time: 0 hr 46 min 7 sec) 
Heartbeat CPU 0 instructions: 21000000 cycles: 14762397 heartbeat IPC: 0.840789 cumulative IPC: 1.00336 (Simulation time: 0 hr 48 min 31 sec) 
Heartbeat CPU 0 instructions: 22000000 cycles: 15765066 heartbeat IPC: 0.997338 cumulative IPC: 1.00286 (Simulation time: 0 hr 50 min 46 sec) 
Heartbeat CPU 0 instructions: 23000002 cycles: 16576466 heartbeat IPC: 1.23244 cumulative IPC: 1.01744 (Simulation time: 0 hr 52 min 58 sec) 
Heartbeat CPU 0 instructions: 24000000 cycles: 17480312 heartbeat IPC: 1.10638 cumulative IPC: 1.02331 (Simulation time: 0 hr 55 min 6 sec) 
Heartbeat CPU 0 instructions: 25000001 cycles: 18435094 heartbeat IPC: 1.04736 cumulative IPC: 1.02488 (Simulation time: 0 hr 57 min 31 sec) 
Heartbeat CPU 0 instructions: 26000003 cycles: 19226515 heartbeat IPC: 1.26355 cumulative IPC: 1.03713 (Simulation time: 0 hr 59 min 33 sec) 
Heartbeat CPU 0 instructions: 27000002 cycles: 20019951 heartbeat IPC: 1.26034 cumulative IPC: 1.04804 (Simulation time: 1 hr 1 min 47 sec) 
Heartbeat CPU 0 instructions: 28000000 cycles: 20971664 heartbeat IPC: 1.05073 cumulative IPC: 1.04819 (Simulation time: 1 hr 4 min 4 sec) 
Heartbeat CPU 0 instructions: 29000003 cycles: 21767698 heartbeat IPC: 1.25623 cumulative IPC: 1.05741 (Simulation time: 1 hr 6 min 24 sec) 
Heartbeat CPU 0 instructions: 30000003 cycles: 22539316 heartbeat IPC: 1.29598 cumulative IPC: 1.06723 (Simulation time: 1 hr 8 min 44 sec) 
Heartbeat CPU 0 instructions: 31000003 cycles: 23448677 heartbeat IPC: 1.09967 cumulative IPC: 1.06873 (Simulation time: 1 hr 11 min 6 sec) 
Heartbeat CPU 0 instructions: 32000000 cycles: 24282619 heartbeat IPC: 1.19912 cumulative IPC: 1.07404 (Simulation time: 1 hr 13 min 14 sec) 
Heartbeat CPU 0 instructions: 33000001 cycles: 25049238 heartbeat IPC: 1.30443 cumulative IPC: 1.08235 (Simulation time: 1 hr 15 min 37 sec) 
Heartbeat CPU 0 instructions: 34000001 cycles: 26432764 heartbeat IPC: 0.722791 cumulative IPC: 1.06038 (Simulation time: 1 hr 18 min 10 sec) 
Heartbeat CPU 0 instructions: 35000002 cycles: 27341811 heartbeat IPC: 1.10005 cumulative IPC: 1.06191 (Simulation time: 1 hr 20 min 35 sec) 
Heartbeat CPU 0 instructions: 36000000 cycles: 28163471 heartbeat IPC: 1.21705 cumulative IPC: 1.06714 (Simulation time: 1 hr 22 min 52 sec) 
Heartbeat CPU 0 instructions: 37000003 cycles: 29139473 heartbeat IPC: 1.02459 cumulative IPC: 1.0655 (Simulation time: 1 hr 25 min 8 sec) 
Heartbeat CPU 0 instructions: 38000000 cycles: 30318947 heartbeat IPC: 0.847833 cumulative IPC: 1.05582 (Simulation time: 1 hr 27 min 25 sec) 
Heartbeat CPU 0 instructions: 39000000 cycles: 31177255 heartbeat IPC: 1.16508 cumulative IPC: 1.05924 (Simulation time: 1 hr 29 min 30 sec) 
Heartbeat CPU 0 instructions: 40000000 cycles: 31984190 heartbeat IPC: 1.23926 cumulative IPC: 1.0644 (Simulation time: 1 hr 31 min 55 sec) 
Heartbeat CPU 0 instructions: 41000000 cycles: 33207725 heartbeat IPC: 0.817304 cumulative IPC: 1.05412 (Simulation time: 1 hr 34 min 22 sec) 
Heartbeat CPU 0 instructions: 42000002 cycles: 34071001 heartbeat IPC: 1.15838 cumulative IPC: 1.05709 (Simulation time: 1 hr 36 min 30 sec) 
Heartbeat CPU 0 instructions: 43000001 cycles: 34878209 heartbeat IPC: 1.23884 cumulative IPC: 1.06181 (Simulation time: 1 hr 38 min 43 sec) 
Heartbeat CPU 0 instructions: 44000000 cycles: 35906945 heartbeat IPC: 0.972066 cumulative IPC: 1.05894 (Simulation time: 1 hr 40 min 55 sec) 
Heartbeat CPU 0 instructions: 45000002 cycles: 36912624 heartbeat IPC: 0.994355 cumulative IPC: 1.05698 (Simulation time: 1 hr 43 min 19 sec) 
Heartbeat CPU 0 instructions: 46000003 cycles: 37704809 heartbeat IPC: 1.26233 cumulative IPC: 1.06177 (Simulation time: 1 hr 45 min 30 sec) 
Heartbeat CPU 0 instructions: 47000000 cycles: 38502481 heartbeat IPC: 1.25364 cumulative IPC: 1.06618 (Simulation time: 1 hr 47 min 44 sec) 
Heartbeat CPU 0 instructions: 48000000 cycles: 39483791 heartbeat IPC: 1.01905 cumulative IPC: 1.06489 (Simulation time: 1 hr 50 min 1 sec) 
Heartbeat CPU 0 instructions: 49000000 cycles: 40295014 heartbeat IPC: 1.23271 cumulative IPC: 1.06862 (Simulation time: 1 hr 52 min 20 sec) 
Heartbeat CPU 0 instructions: 50000000 cycles: 41074952 heartbeat IPC: 1.28215 cumulative IPC: 1.07309 (Simulation time: 1 hr 54 min 43 sec) 
Heartbeat CPU 0 instructions: 51000001 cycles: 42247169 heartbeat IPC: 0.853085 cumulative IPC: 1.06638 (Simulation time: 1 hr 57 min 11 sec) 
Heartbeat CPU 0 instructions: 52000000 cycles: 43060245 heartbeat IPC: 1.2299 cumulative IPC: 1.06976 (Simulation time: 1 hr 59 min 30 sec) 
Heartbeat CPU 0 instructions: 53000002 cycles: 43843874 heartbeat IPC: 1.27612 cumulative IPC: 1.0738 (Simulation time: 2 hr 1 min 53 sec) 
Heartbeat CPU 0 instructions: 54000003 cycles: 44951586 heartbeat IPC: 0.902763 cumulative IPC: 1.0692 (Simulation time: 2 hr 4 min 19 sec) 
Heartbeat CPU 0 instructions: 55000002 cycles: 45851299 heartbeat IPC: 1.11146 cumulative IPC: 1.0701 (Simulation time: 2 hr 6 min 35 sec) 
Heartbeat CPU 0 instructions: 56000000 cycles: 46652105 heartbeat IPC: 1.24874 cumulative IPC: 1.07344 (Simulation time: 2 hr 8 min 46 sec) 
Heartbeat CPU 0 instructions: 57000000 cycles: 47573928 heartbeat IPC: 1.08481 cumulative IPC: 1.07368 (Simulation time: 2 hr 11 min 0 sec) 
Heartbeat CPU 0 instructions: 58000000 cycles: 48651014 heartbeat IPC: 0.928431 cumulative IPC: 1.07019 (Simulation time: 2 hr 13 min 5 sec) 
Heartbeat CPU 0 instructions: 59000001 cycles: 49449616 heartbeat IPC: 1.25219 cumulative IPC: 1.07338 (Simulation time: 2 hr 15 min 19 sec) 
Heartbeat CPU 0 instructions: 60000000 cycles: 50246549 heartbeat IPC: 1.25481 cumulative IPC: 1.07649 (Simulation time: 2 hr 17 min 40 sec) 
Heartbeat CPU 0 instructions: 61000000 cycles: 51566033 heartbeat IPC: 0.757872 cumulative IPC: 1.06769 (Simulation time: 2 hr 19 min 58 sec) 
Heartbeat CPU 0 instructions: 62000002 cycles: 52709615 heartbeat IPC: 0.874447 cumulative IPC: 1.06317 (Simulation time: 2 hr 22 min 21 sec) 
Heartbeat CPU 0 instructions: 63000001 cycles: 53534661 heartbeat IPC: 1.21205 cumulative IPC: 1.06564 (Simulation time: 2 hr 24 min 40 sec) 
Heartbeat CPU 0 instructions: 64000000 cycles: 54333350 heartbeat IPC: 1.25205 cumulative IPC: 1.06859 (Simulation time: 2 hr 26 min 55 sec) 
Heartbeat CPU 0 instructions: 65000000 cycles: 55367836 heartbeat IPC: 0.966664 cumulative IPC: 1.06654 (Simulation time: 2 hr 29 min 16 sec) 
Heartbeat CPU 0 instructions: 66000001 cycles: 56346893 heartbeat IPC: 1.02139 cumulative IPC: 1.0657 (Simulation time: 2 hr 31 min 31 sec) 
Heartbeat CPU 0 instructions: 67000000 cycles: 57129591 heartbeat IPC: 1.27763 cumulative IPC: 1.06881 (Simulation time: 2 hr 33 min 58 sec) 
Heartbeat CPU 0 instructions: 68000000 cycles: 57969853 heartbeat IPC: 1.1901 cumulative IPC: 1.07069 (Simulation time: 2 hr 36 min 10 sec) 
Heartbeat CPU 0 instructions: 69000003 cycles: 59087616 heartbeat IPC: 0.894647 cumulative IPC: 1.06713 (Simulation time: 2 hr 38 min 26 sec) 
Heartbeat CPU 0 instructions: 70000001 cycles: 59922121 heartbeat IPC: 1.19831 cumulative IPC: 1.06908 (Simulation time: 2 hr 40 min 49 sec) 
Heartbeat CPU 0 instructions: 71000001 cycles: 60703670 heartbeat IPC: 1.27951 cumulative IPC: 1.07197 (Simulation time: 2 hr 42 min 58 sec) 
Heartbeat CPU 0 instructions: 72000000 cycles: 61887506 heartbeat IPC: 0.844711 cumulative IPC: 1.06734 (Simulation time: 2 hr 45 min 18 sec) 
Heartbeat CPU 0 instructions: 73000001 cycles: 62708189 heartbeat IPC: 1.2185 cumulative IPC: 1.06945 (Simulation time: 2 hr 47 min 42 sec) 
Heartbeat CPU 0 instructions: 74000000 cycles: 63495813 heartbeat IPC: 1.26964 cumulative IPC: 1.07209 (Simulation time: 2 hr 50 min 7 sec) 
Heartbeat CPU 0 instructions: 75000003 cycles: 64542103 heartbeat IPC: 0.955761 cumulative IPC: 1.07009 (Simulation time: 2 hr 52 min 27 sec) 
Heartbeat CPU 0 instructions: 76000000 cycles: 65470627 heartbeat IPC: 1.07697 cumulative IPC: 1.07019 (Simulation time: 2 hr 54 min 52 sec) 
Heartbeat CPU 0 instructions: 77000002 cycles: 66265488 heartbeat IPC: 1.25808 cumulative IPC: 1.07258 (Simulation time: 2 hr 57 min 10 sec) 
Heartbeat CPU 0 instructions: 78000002 cycles: 67132921 heartbeat IPC: 1.15283 cumulative IPC: 1.07368 (Simulation time: 2 hr 59 min 15 sec) 
Heartbeat CPU 0 instructions: 79000001 cycles: 68195915 heartbeat IPC: 0.940738 cumulative IPC: 1.07148 (Simulation time: 3 hr 1 min 39 sec) 
Heartbeat CPU 0 instructions: 80000000 cycles: 69014527 heartbeat IPC: 1.22158 cumulative IPC: 1.07337 (Simulation time: 3 hr 4 min 2 sec) 
Heartbeat CPU 0 instructions: 81000003 cycles: 69798976 heartbeat IPC: 1.27478 cumulative IPC: 1.07576 (Simulation time: 3 hr 6 min 26 sec) 
Heartbeat CPU 0 instructions: 82000000 cycles: 70943590 heartbeat IPC: 0.873654 cumulative IPC: 1.07232 (Simulation time: 3 hr 9 min 1 sec) 
Heartbeat CPU 0 instructions: 83000001 cycles: 71771975 heartbeat IPC: 1.20717 cumulative IPC: 1.07396 (Simulation time: 3 hr 11 min 18 sec) 
Heartbeat CPU 0 instructions: 84000000 cycles: 72553809 heartbeat IPC: 1.27904 cumulative IPC: 1.07629 (Simulation time: 3 hr 13 min 36 sec) 
Heartbeat CPU 0 instructions: 85000002 cycles: 73649544 heartbeat IPC: 0.912631 cumulative IPC: 1.07373 (Simulation time: 3 hr 15 min 47 sec) 
Heartbeat CPU 0 instructions: 86000003 cycles: 74529733 heartbeat IPC: 1.13612 cumulative IPC: 1.0745 (Simulation time: 3 hr 17 min 54 sec) 
Heartbeat CPU 0 instructions: 87000001 cycles: 75313614 heartbeat IPC: 1.2757 cumulative IPC: 1.07671 (Simulation time: 3 hr 20 min 3 sec) 
Heartbeat CPU 0 instructions: 88000000 cycles: 76270176 heartbeat IPC: 1.04541 cumulative IPC: 1.07629 (Simulation time: 3 hr 22 min 15 sec) 
Heartbeat CPU 0 instructions: 89000000 cycles: 77277119 heartbeat IPC: 0.993105 cumulative IPC: 1.07515 (Simulation time: 3 hr 24 min 34 sec) 
Heartbeat CPU 0 instructions: 90000000 cycles: 78051984 heartbeat IPC: 1.29055 cumulative IPC: 1.0774 (Simulation time: 3 hr 26 min 49 sec) 
Heartbeat CPU 0 instructions: 91000000 cycles: 78835714 heartbeat IPC: 1.27595 cumulative IPC: 1.07948 (Simulation time: 3 hr 29 min 3 sec) 
Heartbeat CPU 0 instructions: 92000000 cycles: 80006040 heartbeat IPC: 0.854463 cumulative IPC: 1.07602 (Simulation time: 3 hr 31 min 17 sec) 
Heartbeat CPU 0 instructions: 93000000 cycles: 80817119 heartbeat IPC: 1.23293 cumulative IPC: 1.07767 (Simulation time: 3 hr 33 min 33 sec) 
Heartbeat CPU 0 instructions: 94000001 cycles: 81594487 heartbeat IPC: 1.28639 cumulative IPC: 1.07976 (Simulation time: 3 hr 35 min 41 sec) 
Heartbeat CPU 0 instructions: 95000002 cycles: 82762063 heartbeat IPC: 0.856476 cumulative IPC: 1.07646 (Simulation time: 3 hr 38 min 10 sec) 
Heartbeat CPU 0 instructions: 96000000 cycles: 83604940 heartbeat IPC: 1.18641 cumulative IPC: 1.07762 (Simulation time: 3 hr 40 min 24 sec) 
Heartbeat CPU 0 instructions: 97000002 cycles: 84389184 heartbeat IPC: 1.27512 cumulative IPC: 1.07954 (Simulation time: 3 hr 42 min 42 sec) 
Heartbeat CPU 0 instructions: 98000000 cycles: 85433648 heartbeat IPC: 0.957427 cumulative IPC: 1.07798 (Simulation time: 3 hr 45 min 0 sec) 
Heartbeat CPU 0 instructions: 99000003 cycles: 86528075 heartbeat IPC: 0.913723 cumulative IPC: 1.0758 (Simulation time: 3 hr 47 min 11 sec) 
Heartbeat CPU 0 instructions: 100000000 cycles: 87336786 heartbeat IPC: 1.23653 cumulative IPC: 1.07736 (Simulation time: 3 hr 49 min 27 sec) 
Heartbeat CPU 0 instructions: 101000000 cycles: 88129585 heartbeat IPC: 1.26135 cumulative IPC: 1.07909 (Simulation time: 3 hr 51 min 37 sec) 
Heartbeat CPU 0 instructions: 102000001 cycles: 89587834 heartbeat IPC: 0.685755 cumulative IPC: 1.0724 (Simulation time: 3 hr 53 min 51 sec) 
Heartbeat CPU 0 instructions: 103000000 cycles: 90864620 heartbeat IPC: 0.783216 cumulative IPC: 1.06816 (Simulation time: 3 hr 56 min 17 sec) 
Heartbeat CPU 0 instructions: 104000000 cycles: 91813459 heartbeat IPC: 1.05392 cumulative IPC: 1.06801 (Simulation time: 3 hr 58 min 35 sec) 
Heartbeat CPU 0 instructions: 105000003 cycles: 92625312 heartbeat IPC: 1.23175 cumulative IPC: 1.06951 (Simulation time: 4 hr 0 min 48 sec) 
Heartbeat CPU 0 instructions: 106000000 cycles: 93459912 heartbeat IPC: 1.19818 cumulative IPC: 1.0707 (Simulation time: 4 hr 2 min 57 sec) 
Heartbeat CPU 0 instructions: 107000001 cycles: 94913248 heartbeat IPC: 0.688073 cumulative IPC: 1.0646 (Simulation time: 4 hr 5 min 22 sec) 
Heartbeat CPU 0 instructions: 108000000 cycles: 95818321 heartbeat IPC: 1.10488 cumulative IPC: 1.065 (Simulation time: 4 hr 7 min 33 sec) 
Heartbeat CPU 0 instructions: 109000000 cycles: 96633073 heartbeat IPC: 1.22737 cumulative IPC: 1.06642 (Simulation time: 4 hr 9 min 47 sec) 
Heartbeat CPU 0 instructions: 110000000 cycles: 97735921 heartbeat IPC: 0.906743 cumulative IPC: 1.06455 (Simulation time: 4 hr 11 min 51 sec) 
Finished CPU 0 instructions: 100000000 cycles: 93936659 cummulative IPC: 1.06455 (Simulation time: 4 hr 11 min 51 sec) 

ChampSim completed all CPUs

Region of Interest Statistics

CPU 0 cummulative IPC: 1.06455 instructions: 100000000 cycles: 93936659
LLC TOTAL     ACCESS:    1574016  HIT:     879441  MISS:     694575
LLC LOAD      ACCESS:     202297  HIT:     171299  MISS:      30998
LLC RFO       ACCESS:     111368  HIT:     108625  MISS:       2743
LLC PREFETCH  ACCESS:    1127196  HIT:     468986  MISS:     658210
LLC WRITEBACK ACCESS:     133155  HIT:     130531  MISS:       2624
Insertion Distribution: 
	LOAD 11984 0 20999 8104 
	RFO 827 0 4554 1271 
	PREF 0 3235 263597 482214 
	WRITEBACK 0 0 0 3047 
Total Prefetch Downgrades: 7241
