
*** ChampSim Multicore Out-of-Order Simulator ***

Warmup Instructions: 10000000
Simulation Instructions: 100000000
Configuration: 2
Number of CPUs: 1
LLC sets: 2048
LLC ways: 16
Off-chip DRAM Channels: 1 Width: 64-bit Data Rate: 1600 MT/s

CPU 0 runs /datasets/cs240c-wi22-a00-public/data/Assignment2-gz/zeusmp_600B.trace.gz
CPU 0 L1D next line prefetcher
CPU 0 L2C IP-based stride prefetcher
Initialize SRRIP state
Heartbeat CPU 0 instructions: 1000000 cycles: 407346 heartbeat IPC: 2.45492 cumulative IPC: 2.45492 (Simulation time: 0 hr 2 min 22 sec) 
Heartbeat CPU 0 instructions: 2000001 cycles: 814284 heartbeat IPC: 2.45738 cumulative IPC: 2.45615 (Simulation time: 0 hr 4 min 30 sec) 
Heartbeat CPU 0 instructions: 3000000 cycles: 1221753 heartbeat IPC: 2.45417 cumulative IPC: 2.45549 (Simulation time: 0 hr 6 min 38 sec) 
Heartbeat CPU 0 instructions: 4000000 cycles: 1629404 heartbeat IPC: 2.45308 cumulative IPC: 2.45489 (Simulation time: 0 hr 8 min 53 sec) 
Heartbeat CPU 0 instructions: 5000001 cycles: 2036967 heartbeat IPC: 2.45361 cumulative IPC: 2.45463 (Simulation time: 0 hr 11 min 17 sec) 
Heartbeat CPU 0 instructions: 6000000 cycles: 2444291 heartbeat IPC: 2.45505 cumulative IPC: 2.4547 (Simulation time: 0 hr 13 min 37 sec) 
Heartbeat CPU 0 instructions: 7000000 cycles: 2851775 heartbeat IPC: 2.45408 cumulative IPC: 2.45461 (Simulation time: 0 hr 15 min 50 sec) 
Heartbeat CPU 0 instructions: 8000000 cycles: 3259377 heartbeat IPC: 2.45337 cumulative IPC: 2.45446 (Simulation time: 0 hr 18 min 17 sec) 
Heartbeat CPU 0 instructions: 9000003 cycles: 3666454 heartbeat IPC: 2.45655 cumulative IPC: 2.45469 (Simulation time: 0 hr 20 min 42 sec) 
Heartbeat CPU 0 instructions: 10000001 cycles: 4073958 heartbeat IPC: 2.45396 cumulative IPC: 2.45462 (Simulation time: 0 hr 23 min 3 sec) 

Warmup complete CPU 0 instructions: 10000001 cycles: 4073958 (Simulation time: 0 hr 23 min 3 sec) 

Heartbeat CPU 0 instructions: 11000000 cycles: 4748498 heartbeat IPC: 1.48249 cumulative IPC: 1.48249 (Simulation time: 0 hr 25 min 41 sec) 
Heartbeat CPU 0 instructions: 12000000 cycles: 5421951 heartbeat IPC: 1.48488 cumulative IPC: 1.48369 (Simulation time: 0 hr 28 min 12 sec) 
Heartbeat CPU 0 instructions: 13000001 cycles: 6096558 heartbeat IPC: 1.48235 cumulative IPC: 1.48324 (Simulation time: 0 hr 30 min 32 sec) 
Heartbeat CPU 0 instructions: 14000001 cycles: 6770059 heartbeat IPC: 1.48478 cumulative IPC: 1.48362 (Simulation time: 0 hr 33 min 4 sec) 
Heartbeat CPU 0 instructions: 15000003 cycles: 7446142 heartbeat IPC: 1.47911 cumulative IPC: 1.48272 (Simulation time: 0 hr 35 min 26 sec) 
Heartbeat CPU 0 instructions: 16000000 cycles: 8169069 heartbeat IPC: 1.38326 cumulative IPC: 1.46516 (Simulation time: 0 hr 37 min 44 sec) 
Heartbeat CPU 0 instructions: 17000001 cycles: 8956897 heartbeat IPC: 1.26931 cumulative IPC: 1.43356 (Simulation time: 0 hr 40 min 11 sec) 
Heartbeat CPU 0 instructions: 18000003 cycles: 9737592 heartbeat IPC: 1.28091 cumulative IPC: 1.41252 (Simulation time: 0 hr 42 min 31 sec) 
Heartbeat CPU 0 instructions: 19000000 cycles: 10515393 heartbeat IPC: 1.28567 cumulative IPC: 1.3972 (Simulation time: 0 hr 44 min 55 sec) 
Heartbeat CPU 0 instructions: 20000000 cycles: 11289092 heartbeat IPC: 1.29249 cumulative IPC: 1.38598 (Simulation time: 0 hr 47 min 18 sec) 
Heartbeat CPU 0 instructions: 21000002 cycles: 12068161 heartbeat IPC: 1.28359 cumulative IPC: 1.376 (Simulation time: 0 hr 49 min 43 sec) 
Heartbeat CPU 0 instructions: 22000000 cycles: 12844701 heartbeat IPC: 1.28776 cumulative IPC: 1.36819 (Simulation time: 0 hr 52 min 9 sec) 
Heartbeat CPU 0 instructions: 23000000 cycles: 13620180 heartbeat IPC: 1.28953 cumulative IPC: 1.3618 (Simulation time: 0 hr 54 min 32 sec) 
Heartbeat CPU 0 instructions: 24000000 cycles: 14399085 heartbeat IPC: 1.28385 cumulative IPC: 1.35592 (Simulation time: 0 hr 56 min 54 sec) 
Heartbeat CPU 0 instructions: 25000000 cycles: 15172959 heartbeat IPC: 1.2922 cumulative IPC: 1.35147 (Simulation time: 0 hr 59 min 21 sec) 
Heartbeat CPU 0 instructions: 26000000 cycles: 15947118 heartbeat IPC: 1.29172 cumulative IPC: 1.34758 (Simulation time: 1 hr 1 min 47 sec) 
Heartbeat CPU 0 instructions: 27000003 cycles: 16723136 heartbeat IPC: 1.28863 cumulative IPC: 1.34396 (Simulation time: 1 hr 4 min 0 sec) 
Heartbeat CPU 0 instructions: 28000000 cycles: 17508379 heartbeat IPC: 1.27349 cumulative IPC: 1.33984 (Simulation time: 1 hr 6 min 33 sec) 
Heartbeat CPU 0 instructions: 29000000 cycles: 18287592 heartbeat IPC: 1.28335 cumulative IPC: 1.33674 (Simulation time: 1 hr 8 min 53 sec) 
Heartbeat CPU 0 instructions: 30000003 cycles: 19070809 heartbeat IPC: 1.27679 cumulative IPC: 1.33361 (Simulation time: 1 hr 11 min 17 sec) 
Heartbeat CPU 0 instructions: 31000002 cycles: 19860068 heartbeat IPC: 1.26701 cumulative IPC: 1.33028 (Simulation time: 1 hr 13 min 47 sec) 
Heartbeat CPU 0 instructions: 32000000 cycles: 20642938 heartbeat IPC: 1.27735 cumulative IPC: 1.32778 (Simulation time: 1 hr 16 min 4 sec) 
Heartbeat CPU 0 instructions: 33000001 cycles: 21430450 heartbeat IPC: 1.26982 cumulative IPC: 1.32515 (Simulation time: 1 hr 18 min 36 sec) 
Heartbeat CPU 0 instructions: 34000000 cycles: 22212851 heartbeat IPC: 1.27812 cumulative IPC: 1.32312 (Simulation time: 1 hr 20 min 55 sec) 
Heartbeat CPU 0 instructions: 35000000 cycles: 22996329 heartbeat IPC: 1.27636 cumulative IPC: 1.32119 (Simulation time: 1 hr 23 min 14 sec) 
Heartbeat CPU 0 instructions: 36000000 cycles: 23775267 heartbeat IPC: 1.2838 cumulative IPC: 1.31971 (Simulation time: 1 hr 25 min 44 sec) 
Heartbeat CPU 0 instructions: 37000001 cycles: 24557926 heartbeat IPC: 1.2777 cumulative IPC: 1.3181 (Simulation time: 1 hr 28 min 14 sec) 
Heartbeat CPU 0 instructions: 38000001 cycles: 25346247 heartbeat IPC: 1.26852 cumulative IPC: 1.31627 (Simulation time: 1 hr 30 min 50 sec) 
Heartbeat CPU 0 instructions: 39000002 cycles: 26128192 heartbeat IPC: 1.27886 cumulative IPC: 1.31494 (Simulation time: 1 hr 33 min 19 sec) 
Heartbeat CPU 0 instructions: 40000000 cycles: 26907858 heartbeat IPC: 1.2826 cumulative IPC: 1.31384 (Simulation time: 1 hr 35 min 52 sec) 
Heartbeat CPU 0 instructions: 41000002 cycles: 27686999 heartbeat IPC: 1.28347 cumulative IPC: 1.31283 (Simulation time: 1 hr 38 min 14 sec) 
Heartbeat CPU 0 instructions: 42000000 cycles: 28467476 heartbeat IPC: 1.28127 cumulative IPC: 1.31182 (Simulation time: 1 hr 40 min 50 sec) 
Heartbeat CPU 0 instructions: 43000002 cycles: 29254690 heartbeat IPC: 1.27031 cumulative IPC: 1.31053 (Simulation time: 1 hr 43 min 21 sec) 
Heartbeat CPU 0 instructions: 44000000 cycles: 30034296 heartbeat IPC: 1.2827 cumulative IPC: 1.30969 (Simulation time: 1 hr 45 min 42 sec) 
Heartbeat CPU 0 instructions: 45000003 cycles: 30810479 heartbeat IPC: 1.28836 cumulative IPC: 1.30907 (Simulation time: 1 hr 47 min 59 sec) 
Heartbeat CPU 0 instructions: 46000000 cycles: 31589519 heartbeat IPC: 1.28363 cumulative IPC: 1.30835 (Simulation time: 1 hr 50 min 28 sec) 
Heartbeat CPU 0 instructions: 47000001 cycles: 32376850 heartbeat IPC: 1.27012 cumulative IPC: 1.30729 (Simulation time: 1 hr 52 min 39 sec) 
Heartbeat CPU 0 instructions: 48000000 cycles: 33159187 heartbeat IPC: 1.27822 cumulative IPC: 1.30651 (Simulation time: 1 hr 54 min 59 sec) 
Heartbeat CPU 0 instructions: 49000000 cycles: 33941142 heartbeat IPC: 1.27885 cumulative IPC: 1.30578 (Simulation time: 1 hr 57 min 14 sec) 
Heartbeat CPU 0 instructions: 50000000 cycles: 34721397 heartbeat IPC: 1.28163 cumulative IPC: 1.30517 (Simulation time: 1 hr 59 min 50 sec) 
Heartbeat CPU 0 instructions: 51000001 cycles: 35504041 heartbeat IPC: 1.27772 cumulative IPC: 1.30448 (Simulation time: 2 hr 2 min 18 sec) 
Heartbeat CPU 0 instructions: 52000000 cycles: 36279564 heartbeat IPC: 1.28945 cumulative IPC: 1.30412 (Simulation time: 2 hr 4 min 50 sec) 
Heartbeat CPU 0 instructions: 53000001 cycles: 37065505 heartbeat IPC: 1.27236 cumulative IPC: 1.30336 (Simulation time: 2 hr 7 min 19 sec) 
Heartbeat CPU 0 instructions: 54000000 cycles: 37851101 heartbeat IPC: 1.27292 cumulative IPC: 1.30266 (Simulation time: 2 hr 9 min 42 sec) 
Heartbeat CPU 0 instructions: 55000001 cycles: 38631981 heartbeat IPC: 1.28061 cumulative IPC: 1.30216 (Simulation time: 2 hr 12 min 6 sec) 
Heartbeat CPU 0 instructions: 56000000 cycles: 39408973 heartbeat IPC: 1.28701 cumulative IPC: 1.30182 (Simulation time: 2 hr 14 min 27 sec) 
Heartbeat CPU 0 instructions: 57000003 cycles: 40197279 heartbeat IPC: 1.26855 cumulative IPC: 1.3011 (Simulation time: 2 hr 17 min 4 sec) 
Heartbeat CPU 0 instructions: 58000001 cycles: 40969962 heartbeat IPC: 1.29419 cumulative IPC: 1.30095 (Simulation time: 2 hr 19 min 36 sec) 
Heartbeat CPU 0 instructions: 59000000 cycles: 41751750 heartbeat IPC: 1.27912 cumulative IPC: 1.3005 (Simulation time: 2 hr 22 min 3 sec) 
Heartbeat CPU 0 instructions: 60000000 cycles: 42529384 heartbeat IPC: 1.28595 cumulative IPC: 1.30021 (Simulation time: 2 hr 24 min 39 sec) 
Heartbeat CPU 0 instructions: 61000003 cycles: 43308609 heartbeat IPC: 1.28333 cumulative IPC: 1.29987 (Simulation time: 2 hr 27 min 4 sec) 
Heartbeat CPU 0 instructions: 62000001 cycles: 44093039 heartbeat IPC: 1.27481 cumulative IPC: 1.29938 (Simulation time: 2 hr 29 min 26 sec) 
Heartbeat CPU 0 instructions: 63000000 cycles: 44870672 heartbeat IPC: 1.28595 cumulative IPC: 1.29912 (Simulation time: 2 hr 32 min 4 sec) 
Heartbeat CPU 0 instructions: 64000000 cycles: 45649217 heartbeat IPC: 1.28445 cumulative IPC: 1.29885 (Simulation time: 2 hr 34 min 29 sec) 
Heartbeat CPU 0 instructions: 65000001 cycles: 46439059 heartbeat IPC: 1.26608 cumulative IPC: 1.29824 (Simulation time: 2 hr 37 min 23 sec) 
Heartbeat CPU 0 instructions: 66000000 cycles: 47228140 heartbeat IPC: 1.2673 cumulative IPC: 1.29767 (Simulation time: 2 hr 39 min 46 sec) 
Heartbeat CPU 0 instructions: 67000001 cycles: 48014104 heartbeat IPC: 1.27232 cumulative IPC: 1.29722 (Simulation time: 2 hr 42 min 13 sec) 
Heartbeat CPU 0 instructions: 68000000 cycles: 48793649 heartbeat IPC: 1.2828 cumulative IPC: 1.29697 (Simulation time: 2 hr 44 min 40 sec) 
Heartbeat CPU 0 instructions: 69000002 cycles: 49582172 heartbeat IPC: 1.2682 cumulative IPC: 1.29647 (Simulation time: 2 hr 47 min 29 sec) 
Heartbeat CPU 0 instructions: 70000000 cycles: 50361897 heartbeat IPC: 1.2825 cumulative IPC: 1.29623 (Simulation time: 2 hr 49 min 55 sec) 
Heartbeat CPU 0 instructions: 71000001 cycles: 51148921 heartbeat IPC: 1.27061 cumulative IPC: 1.29581 (Simulation time: 2 hr 52 min 7 sec) 
Heartbeat CPU 0 instructions: 72000000 cycles: 51936007 heartbeat IPC: 1.27051 cumulative IPC: 1.29539 (Simulation time: 2 hr 54 min 44 sec) 
Heartbeat CPU 0 instructions: 73000003 cycles: 52712730 heartbeat IPC: 1.28746 cumulative IPC: 1.29526 (Simulation time: 2 hr 57 min 17 sec) 
Heartbeat CPU 0 instructions: 74000002 cycles: 53493409 heartbeat IPC: 1.28093 cumulative IPC: 1.29504 (Simulation time: 2 hr 59 min 38 sec) 
Heartbeat CPU 0 instructions: 75000003 cycles: 54277759 heartbeat IPC: 1.27494 cumulative IPC: 1.29472 (Simulation time: 3 hr 2 min 0 sec) 
Heartbeat CPU 0 instructions: 76000000 cycles: 55066775 heartbeat IPC: 1.2674 cumulative IPC: 1.2943 (Simulation time: 3 hr 4 min 23 sec) 
Heartbeat CPU 0 instructions: 77000000 cycles: 55846595 heartbeat IPC: 1.28235 cumulative IPC: 1.29412 (Simulation time: 3 hr 6 min 53 sec) 
Heartbeat CPU 0 instructions: 78000003 cycles: 56628674 heartbeat IPC: 1.27865 cumulative IPC: 1.29389 (Simulation time: 3 hr 9 min 38 sec) 
Heartbeat CPU 0 instructions: 79000000 cycles: 57411192 heartbeat IPC: 1.27792 cumulative IPC: 1.29366 (Simulation time: 3 hr 12 min 11 sec) 
Heartbeat CPU 0 instructions: 80000000 cycles: 58194707 heartbeat IPC: 1.2763 cumulative IPC: 1.2934 (Simulation time: 3 hr 14 min 46 sec) 
Heartbeat CPU 0 instructions: 81000002 cycles: 58972068 heartbeat IPC: 1.28641 cumulative IPC: 1.29331 (Simulation time: 3 hr 17 min 15 sec) 
Heartbeat CPU 0 instructions: 82000002 cycles: 59756245 heartbeat IPC: 1.27522 cumulative IPC: 1.29305 (Simulation time: 3 hr 19 min 48 sec) 
Heartbeat CPU 0 instructions: 83000001 cycles: 60533304 heartbeat IPC: 1.2869 cumulative IPC: 1.29297 (Simulation time: 3 hr 22 min 18 sec) 
Heartbeat CPU 0 instructions: 84000000 cycles: 61317078 heartbeat IPC: 1.27588 cumulative IPC: 1.29273 (Simulation time: 3 hr 24 min 53 sec) 
Heartbeat CPU 0 instructions: 85000002 cycles: 62101620 heartbeat IPC: 1.27463 cumulative IPC: 1.29249 (Simulation time: 3 hr 27 min 36 sec) 
Heartbeat CPU 0 instructions: 86000002 cycles: 62879172 heartbeat IPC: 1.28609 cumulative IPC: 1.2924 (Simulation time: 3 hr 30 min 9 sec) 
Heartbeat CPU 0 instructions: 87000000 cycles: 63662330 heartbeat IPC: 1.27688 cumulative IPC: 1.2922 (Simulation time: 3 hr 32 min 44 sec) 
Heartbeat CPU 0 instructions: 88000000 cycles: 64449791 heartbeat IPC: 1.2699 cumulative IPC: 1.29191 (Simulation time: 3 hr 35 min 6 sec) 
Heartbeat CPU 0 instructions: 89000002 cycles: 65229196 heartbeat IPC: 1.28303 cumulative IPC: 1.29179 (Simulation time: 3 hr 37 min 39 sec) 
Heartbeat CPU 0 instructions: 90000002 cycles: 66005771 heartbeat IPC: 1.28771 cumulative IPC: 1.29174 (Simulation time: 3 hr 40 min 10 sec) 
Heartbeat CPU 0 instructions: 91000001 cycles: 66785412 heartbeat IPC: 1.28264 cumulative IPC: 1.29163 (Simulation time: 3 hr 42 min 38 sec) 
Heartbeat CPU 0 instructions: 92000000 cycles: 67575635 heartbeat IPC: 1.26546 cumulative IPC: 1.2913 (Simulation time: 3 hr 45 min 5 sec) 
Heartbeat CPU 0 instructions: 93000000 cycles: 68351380 heartbeat IPC: 1.28908 cumulative IPC: 1.29128 (Simulation time: 3 hr 47 min 45 sec) 
Heartbeat CPU 0 instructions: 94000002 cycles: 69133326 heartbeat IPC: 1.27886 cumulative IPC: 1.29113 (Simulation time: 3 hr 50 min 13 sec) 
Heartbeat CPU 0 instructions: 95000001 cycles: 69916023 heartbeat IPC: 1.27763 cumulative IPC: 1.29097 (Simulation time: 3 hr 52 min 54 sec) 
Heartbeat CPU 0 instructions: 96000000 cycles: 70697324 heartbeat IPC: 1.27992 cumulative IPC: 1.29084 (Simulation time: 3 hr 55 min 20 sec) 
Heartbeat CPU 0 instructions: 97000003 cycles: 71470928 heartbeat IPC: 1.29265 cumulative IPC: 1.29086 (Simulation time: 3 hr 57 min 41 sec) 
Heartbeat CPU 0 instructions: 98000002 cycles: 72247577 heartbeat IPC: 1.28758 cumulative IPC: 1.29082 (Simulation time: 4 hr 0 min 11 sec) 
Heartbeat CPU 0 instructions: 99000000 cycles: 73037677 heartbeat IPC: 1.26566 cumulative IPC: 1.29053 (Simulation time: 4 hr 2 min 23 sec) 
Heartbeat CPU 0 instructions: 100000000 cycles: 73816409 heartbeat IPC: 1.28414 cumulative IPC: 1.29046 (Simulation time: 4 hr 4 min 35 sec) 
Heartbeat CPU 0 instructions: 101000002 cycles: 74592160 heartbeat IPC: 1.28908 cumulative IPC: 1.29045 (Simulation time: 4 hr 6 min 55 sec) 
Heartbeat CPU 0 instructions: 102000002 cycles: 75379240 heartbeat IPC: 1.27052 cumulative IPC: 1.29023 (Simulation time: 4 hr 9 min 1 sec) 
Heartbeat CPU 0 instructions: 103000001 cycles: 76160762 heartbeat IPC: 1.27955 cumulative IPC: 1.29011 (Simulation time: 4 hr 11 min 12 sec) 
Heartbeat CPU 0 instructions: 104000000 cycles: 76945748 heartbeat IPC: 1.27391 cumulative IPC: 1.28994 (Simulation time: 4 hr 13 min 19 sec) 
Heartbeat CPU 0 instructions: 105000001 cycles: 77729432 heartbeat IPC: 1.27603 cumulative IPC: 1.28979 (Simulation time: 4 hr 15 min 24 sec) 
Heartbeat CPU 0 instructions: 106000000 cycles: 78513206 heartbeat IPC: 1.27588 cumulative IPC: 1.28964 (Simulation time: 4 hr 17 min 25 sec) 
Heartbeat CPU 0 instructions: 107000000 cycles: 79297121 heartbeat IPC: 1.27565 cumulative IPC: 1.2895 (Simulation time: 4 hr 19 min 24 sec) 
Heartbeat CPU 0 instructions: 108000000 cycles: 80078510 heartbeat IPC: 1.27977 cumulative IPC: 1.2894 (Simulation time: 4 hr 21 min 19 sec) 
Heartbeat CPU 0 instructions: 109000000 cycles: 80865555 heartbeat IPC: 1.27058 cumulative IPC: 1.2892 (Simulation time: 4 hr 23 min 6 sec) 
Heartbeat CPU 0 instructions: 110000002 cycles: 81648881 heartbeat IPC: 1.27661 cumulative IPC: 1.28908 (Simulation time: 4 hr 24 min 44 sec) 
Finished CPU 0 instructions: 100000001 cycles: 77574923 cummulative IPC: 1.28908 (Simulation time: 4 hr 24 min 44 sec) 

ChampSim completed all CPUs

Region of Interest Statistics

CPU 0 cummulative IPC: 1.28908 instructions: 100000001 cycles: 77574923
LLC TOTAL     ACCESS:     382568  HIT:      26060  MISS:     356508
LLC LOAD      ACCESS:      28011  HIT:        214  MISS:      27797
LLC RFO       ACCESS:       3434  HIT:          3  MISS:       3431
LLC PREFETCH  ACCESS:     287887  HIT:       2537  MISS:     285350
LLC WRITEBACK ACCESS:      63236  HIT:      23306  MISS:      39930
Insertion Distribution: 
	LOAD 0 0 11459 17070 
	RFO 0 0 6441 2985 
	PREF 0 0 106134 205336 
	WRITEBACK 0 0 0 40391 
Total Prefetch Downgrades: 102
