
*** ChampSim Multicore Out-of-Order Simulator ***

Warmup Instructions: 10000000
Simulation Instructions: 100000000
Configuration: 2
Number of CPUs: 1
LLC sets: 2048
LLC ways: 16
Off-chip DRAM Channels: 1 Width: 64-bit Data Rate: 1600 MT/s

CPU 0 runs /datasets/cs240c-wi22-a00-public/data/Assignment2-gz/cactusADM_1039B.trace.gz
CPU 0 L1D next line prefetcher
CPU 0 L2C IP-based stride prefetcher
Initialize SRRIP state
Heartbeat CPU 0 instructions: 1000000 cycles: 595518 heartbeat IPC: 1.67921 cumulative IPC: 1.67921 (Simulation time: 0 hr 3 min 16 sec) 
Heartbeat CPU 0 instructions: 2000002 cycles: 1190937 heartbeat IPC: 1.67949 cumulative IPC: 1.67935 (Simulation time: 0 hr 6 min 16 sec) 
Heartbeat CPU 0 instructions: 3000003 cycles: 1786622 heartbeat IPC: 1.67874 cumulative IPC: 1.67915 (Simulation time: 0 hr 9 min 27 sec) 
Heartbeat CPU 0 instructions: 4000000 cycles: 2382046 heartbeat IPC: 1.67947 cumulative IPC: 1.67923 (Simulation time: 0 hr 12 min 41 sec) 
Heartbeat CPU 0 instructions: 5000001 cycles: 2977457 heartbeat IPC: 1.67951 cumulative IPC: 1.67929 (Simulation time: 0 hr 15 min 40 sec) 
Heartbeat CPU 0 instructions: 6000002 cycles: 3572930 heartbeat IPC: 1.67934 cumulative IPC: 1.67929 (Simulation time: 0 hr 19 min 10 sec) 
Heartbeat CPU 0 instructions: 7000000 cycles: 4168306 heartbeat IPC: 1.67961 cumulative IPC: 1.67934 (Simulation time: 0 hr 22 min 30 sec) 
Heartbeat CPU 0 instructions: 8000000 cycles: 4763681 heartbeat IPC: 1.67961 cumulative IPC: 1.67937 (Simulation time: 0 hr 25 min 34 sec) 
Heartbeat CPU 0 instructions: 9000002 cycles: 5359336 heartbeat IPC: 1.67883 cumulative IPC: 1.67931 (Simulation time: 0 hr 28 min 43 sec) 
Heartbeat CPU 0 instructions: 10000003 cycles: 5974113 heartbeat IPC: 1.62661 cumulative IPC: 1.67389 (Simulation time: 0 hr 31 min 34 sec) 

Warmup complete CPU 0 instructions: 10000003 cycles: 5974113 (Simulation time: 0 hr 31 min 34 sec) 

Heartbeat CPU 0 instructions: 11000003 cycles: 12131810 heartbeat IPC: 0.162398 cumulative IPC: 0.162398 (Simulation time: 0 hr 35 min 14 sec) 
Heartbeat CPU 0 instructions: 12000000 cycles: 13873752 heartbeat IPC: 0.57407 cumulative IPC: 0.253176 (Simulation time: 0 hr 38 min 24 sec) 
Heartbeat CPU 0 instructions: 13000002 cycles: 15541441 heartbeat IPC: 0.599633 cumulative IPC: 0.313567 (Simulation time: 0 hr 41 min 31 sec) 
Heartbeat CPU 0 instructions: 14000001 cycles: 17249658 heartbeat IPC: 0.585405 cumulative IPC: 0.35475 (Simulation time: 0 hr 44 min 40 sec) 
Heartbeat CPU 0 instructions: 15000002 cycles: 18993715 heartbeat IPC: 0.573376 cumulative IPC: 0.384036 (Simulation time: 0 hr 47 min 54 sec) 
Heartbeat CPU 0 instructions: 16000000 cycles: 20741253 heartbeat IPC: 0.572232 cumulative IPC: 0.406307 (Simulation time: 0 hr 50 min 50 sec) 
Heartbeat CPU 0 instructions: 17000003 cycles: 22465474 heartbeat IPC: 0.579974 cumulative IPC: 0.424465 (Simulation time: 0 hr 53 min 44 sec) 
Heartbeat CPU 0 instructions: 18000002 cycles: 24120521 heartbeat IPC: 0.604212 cumulative IPC: 0.440859 (Simulation time: 0 hr 56 min 45 sec) 
Heartbeat CPU 0 instructions: 19000003 cycles: 25857012 heartbeat IPC: 0.575875 cumulative IPC: 0.45265 (Simulation time: 0 hr 59 min 40 sec) 
Heartbeat CPU 0 instructions: 20000000 cycles: 27600685 heartbeat IPC: 0.5735 cumulative IPC: 0.462394 (Simulation time: 1 hr 2 min 39 sec) 
Heartbeat CPU 0 instructions: 21000002 cycles: 29344147 heartbeat IPC: 0.573573 cumulative IPC: 0.470688 (Simulation time: 1 hr 5 min 45 sec) 
Heartbeat CPU 0 instructions: 22000003 cycles: 31035490 heartbeat IPC: 0.591247 cumulative IPC: 0.478824 (Simulation time: 1 hr 8 min 52 sec) 
Heartbeat CPU 0 instructions: 23000001 cycles: 32720474 heartbeat IPC: 0.593476 cumulative IPC: 0.486047 (Simulation time: 1 hr 12 min 12 sec) 
Heartbeat CPU 0 instructions: 24000000 cycles: 39388447 heartbeat IPC: 0.14997 cumulative IPC: 0.418982 (Simulation time: 1 hr 15 min 45 sec) 
Heartbeat CPU 0 instructions: 25000002 cycles: 41126498 heartbeat IPC: 0.575358 cumulative IPC: 0.426714 (Simulation time: 1 hr 18 min 48 sec) 
Heartbeat CPU 0 instructions: 26000002 cycles: 42851519 heartbeat IPC: 0.579703 cumulative IPC: 0.43387 (Simulation time: 1 hr 21 min 51 sec) 
Heartbeat CPU 0 instructions: 27000002 cycles: 44516903 heartbeat IPC: 0.600462 cumulative IPC: 0.441068 (Simulation time: 1 hr 24 min 42 sec) 
Heartbeat CPU 0 instructions: 28000000 cycles: 46248129 heartbeat IPC: 0.577624 cumulative IPC: 0.446938 (Simulation time: 1 hr 27 min 43 sec) 
Heartbeat CPU 0 instructions: 29000000 cycles: 47989367 heartbeat IPC: 0.574304 cumulative IPC: 0.452217 (Simulation time: 1 hr 30 min 49 sec) 
Heartbeat CPU 0 instructions: 30000003 cycles: 49728421 heartbeat IPC: 0.575027 cumulative IPC: 0.457098 (Simulation time: 1 hr 33 min 37 sec) 
Heartbeat CPU 0 instructions: 31000001 cycles: 51424958 heartbeat IPC: 0.589435 cumulative IPC: 0.462038 (Simulation time: 1 hr 36 min 42 sec) 
Heartbeat CPU 0 instructions: 32000000 cycles: 53101798 heartbeat IPC: 0.596359 cumulative IPC: 0.466817 (Simulation time: 1 hr 39 min 47 sec) 
Heartbeat CPU 0 instructions: 33000001 cycles: 54840667 heartbeat IPC: 0.575087 cumulative IPC: 0.47067 (Simulation time: 1 hr 42 min 57 sec) 
Heartbeat CPU 0 instructions: 34000000 cycles: 56581013 heartbeat IPC: 0.574598 cumulative IPC: 0.474244 (Simulation time: 1 hr 45 min 50 sec) 
Heartbeat CPU 0 instructions: 35000001 cycles: 58316497 heartbeat IPC: 0.576209 cumulative IPC: 0.477624 (Simulation time: 1 hr 49 min 0 sec) 
Heartbeat CPU 0 instructions: 36000000 cycles: 59980744 heartbeat IPC: 0.600872 cumulative IPC: 0.481422 (Simulation time: 1 hr 52 min 1 sec) 
Heartbeat CPU 0 instructions: 37000002 cycles: 66588979 heartbeat IPC: 0.151327 cumulative IPC: 0.445435 (Simulation time: 1 hr 55 min 41 sec) 
Heartbeat CPU 0 instructions: 38000001 cycles: 68329957 heartbeat IPC: 0.574389 cumulative IPC: 0.449036 (Simulation time: 1 hr 58 min 43 sec) 
Heartbeat CPU 0 instructions: 39000002 cycles: 70071853 heartbeat IPC: 0.574088 cumulative IPC: 0.452434 (Simulation time: 2 hr 1 min 46 sec) 
Heartbeat CPU 0 instructions: 40000000 cycles: 71769437 heartbeat IPC: 0.589071 cumulative IPC: 0.455959 (Simulation time: 2 hr 4 min 44 sec) 
Heartbeat CPU 0 instructions: 41000003 cycles: 73442006 heartbeat IPC: 0.597884 cumulative IPC: 0.459478 (Simulation time: 2 hr 7 min 56 sec) 
Heartbeat CPU 0 instructions: 42000000 cycles: 75179771 heartbeat IPC: 0.57545 cumulative IPC: 0.46239 (Simulation time: 2 hr 11 min 5 sec) 
Heartbeat CPU 0 instructions: 43000000 cycles: 76921229 heartbeat IPC: 0.574232 cumulative IPC: 0.465135 (Simulation time: 2 hr 14 min 0 sec) 
Heartbeat CPU 0 instructions: 44000000 cycles: 78659981 heartbeat IPC: 0.575125 cumulative IPC: 0.467766 (Simulation time: 2 hr 17 min 6 sec) 
Heartbeat CPU 0 instructions: 45000000 cycles: 80329013 heartbeat IPC: 0.59915 cumulative IPC: 0.470715 (Simulation time: 2 hr 20 min 17 sec) 
Heartbeat CPU 0 instructions: 46000003 cycles: 82034171 heartbeat IPC: 0.586458 cumulative IPC: 0.47331 (Simulation time: 2 hr 23 min 13 sec) 
Heartbeat CPU 0 instructions: 47000001 cycles: 83775335 heartbeat IPC: 0.574327 cumulative IPC: 0.475571 (Simulation time: 2 hr 26 min 15 sec) 
Heartbeat CPU 0 instructions: 48000000 cycles: 85516636 heartbeat IPC: 0.574283 cumulative IPC: 0.477732 (Simulation time: 2 hr 29 min 23 sec) 
Heartbeat CPU 0 instructions: 49000001 cycles: 87242001 heartbeat IPC: 0.579588 cumulative IPC: 0.479894 (Simulation time: 2 hr 32 min 26 sec) 
Heartbeat CPU 0 instructions: 50000000 cycles: 93894547 heartbeat IPC: 0.150318 cumulative IPC: 0.454957 (Simulation time: 2 hr 36 min 1 sec) 
Heartbeat CPU 0 instructions: 51000003 cycles: 95658130 heartbeat IPC: 0.567029 cumulative IPC: 0.457161 (Simulation time: 2 hr 39 min 27 sec) 
Heartbeat CPU 0 instructions: 52000000 cycles: 97431239 heartbeat IPC: 0.563979 cumulative IPC: 0.459232 (Simulation time: 2 hr 42 min 37 sec) 
Heartbeat CPU 0 instructions: 53000003 cycles: 99201835 heartbeat IPC: 0.564783 cumulative IPC: 0.461236 (Simulation time: 2 hr 45 min 42 sec) 
Heartbeat CPU 0 instructions: 54000002 cycles: 100919024 heartbeat IPC: 0.582346 cumulative IPC: 0.463427 (Simulation time: 2 hr 48 min 53 sec) 
Heartbeat CPU 0 instructions: 55000001 cycles: 102645836 heartbeat IPC: 0.579101 cumulative IPC: 0.465493 (Simulation time: 2 hr 51 min 51 sec) 
Heartbeat CPU 0 instructions: 56000000 cycles: 104416030 heartbeat IPC: 0.564909 cumulative IPC: 0.467281 (Simulation time: 2 hr 54 min 56 sec) 
Heartbeat CPU 0 instructions: 57000000 cycles: 106191505 heartbeat IPC: 0.56323 cumulative IPC: 0.46898 (Simulation time: 2 hr 57 min 52 sec) 
Heartbeat CPU 0 instructions: 58000000 cycles: 107956647 heartbeat IPC: 0.566527 cumulative IPC: 0.470669 (Simulation time: 3 hr 0 min 49 sec) 
Heartbeat CPU 0 instructions: 59000002 cycles: 109643712 heartbeat IPC: 0.592747 cumulative IPC: 0.472655 (Simulation time: 3 hr 3 min 43 sec) 
Heartbeat CPU 0 instructions: 60000000 cycles: 111403728 heartbeat IPC: 0.568175 cumulative IPC: 0.47425 (Simulation time: 3 hr 6 min 39 sec) 
Heartbeat CPU 0 instructions: 61000001 cycles: 113178772 heartbeat IPC: 0.563367 cumulative IPC: 0.475726 (Simulation time: 3 hr 9 min 42 sec) 
Heartbeat CPU 0 instructions: 62000000 cycles: 114952277 heartbeat IPC: 0.563855 cumulative IPC: 0.47716 (Simulation time: 3 hr 12 min 46 sec) 
Heartbeat CPU 0 instructions: 63000001 cycles: 121169255 heartbeat IPC: 0.16085 cumulative IPC: 0.460089 (Simulation time: 3 hr 16 min 29 sec) 
Heartbeat CPU 0 instructions: 64000000 cycles: 123438661 heartbeat IPC: 0.440643 cumulative IPC: 0.459713 (Simulation time: 3 hr 19 min 39 sec) 
Heartbeat CPU 0 instructions: 65000002 cycles: 125209823 heartbeat IPC: 0.564602 cumulative IPC: 0.461271 (Simulation time: 3 hr 22 min 18 sec) 
Heartbeat CPU 0 instructions: 66000001 cycles: 126981877 heartbeat IPC: 0.564316 cumulative IPC: 0.46278 (Simulation time: 3 hr 25 min 13 sec) 
Heartbeat CPU 0 instructions: 67000003 cycles: 128748128 heartbeat IPC: 0.566172 cumulative IPC: 0.464268 (Simulation time: 3 hr 27 min 58 sec) 
Heartbeat CPU 0 instructions: 68000000 cycles: 130474830 heartbeat IPC: 0.579137 cumulative IPC: 0.465861 (Simulation time: 3 hr 30 min 58 sec) 
Heartbeat CPU 0 instructions: 69000003 cycles: 132252653 heartbeat IPC: 0.562487 cumulative IPC: 0.467221 (Simulation time: 3 hr 34 min 0 sec) 
Heartbeat CPU 0 instructions: 70000002 cycles: 134024086 heartbeat IPC: 0.564514 cumulative IPC: 0.468567 (Simulation time: 3 hr 36 min 51 sec) 
Heartbeat CPU 0 instructions: 71000000 cycles: 135796028 heartbeat IPC: 0.564351 cumulative IPC: 0.469874 (Simulation time: 3 hr 40 min 22 sec) 
Heartbeat CPU 0 instructions: 72000000 cycles: 137543597 heartbeat IPC: 0.572223 cumulative IPC: 0.471234 (Simulation time: 3 hr 43 min 31 sec) 
Heartbeat CPU 0 instructions: 73000001 cycles: 139244182 heartbeat IPC: 0.588034 cumulative IPC: 0.472724 (Simulation time: 3 hr 46 min 28 sec) 
Heartbeat CPU 0 instructions: 74000003 cycles: 141011823 heartbeat IPC: 0.565727 cumulative IPC: 0.473942 (Simulation time: 3 hr 49 min 20 sec) 
Heartbeat CPU 0 instructions: 75000002 cycles: 142786113 heartbeat IPC: 0.563605 cumulative IPC: 0.475105 (Simulation time: 3 hr 52 min 13 sec) 
Heartbeat CPU 0 instructions: 76000000 cycles: 148060412 heartbeat IPC: 0.189598 cumulative IPC: 0.464506 (Simulation time: 3 hr 55 min 36 sec) 
Heartbeat CPU 0 instructions: 77000001 cycles: 151236609 heartbeat IPC: 0.314842 cumulative IPC: 0.461234 (Simulation time: 3 hr 58 min 45 sec) 
Heartbeat CPU 0 instructions: 78000000 cycles: 152986816 heartbeat IPC: 0.57136 cumulative IPC: 0.462545 (Simulation time: 4 hr 1 min 36 sec) 
Heartbeat CPU 0 instructions: 79000002 cycles: 154758403 heartbeat IPC: 0.564467 cumulative IPC: 0.463759 (Simulation time: 4 hr 4 min 29 sec) 
Heartbeat CPU 0 instructions: 80000000 cycles: 156529877 heartbeat IPC: 0.564501 cumulative IPC: 0.464944 (Simulation time: 4 hr 7 min 19 sec) 
Heartbeat CPU 0 instructions: 81000002 cycles: 158278584 heartbeat IPC: 0.571852 cumulative IPC: 0.466171 (Simulation time: 4 hr 9 min 59 sec) 
Heartbeat CPU 0 instructions: 82000002 cycles: 159974206 heartbeat IPC: 0.589754 cumulative IPC: 0.467532 (Simulation time: 4 hr 12 min 46 sec) 
Heartbeat CPU 0 instructions: 83000003 cycles: 161741866 heartbeat IPC: 0.56572 cumulative IPC: 0.468646 (Simulation time: 4 hr 15 min 29 sec) 
Heartbeat CPU 0 instructions: 84000000 cycles: 163512597 heartbeat IPC: 0.564737 cumulative IPC: 0.469726 (Simulation time: 4 hr 18 min 5 sec) 
Heartbeat CPU 0 instructions: 85000002 cycles: 165284428 heartbeat IPC: 0.564389 cumulative IPC: 0.470779 (Simulation time: 4 hr 20 min 43 sec) 
Heartbeat CPU 0 instructions: 86000003 cycles: 167000037 heartbeat IPC: 0.582884 cumulative IPC: 0.471974 (Simulation time: 4 hr 23 min 12 sec) 
Heartbeat CPU 0 instructions: 87000000 cycles: 168743370 heartbeat IPC: 0.573612 cumulative IPC: 0.473062 (Simulation time: 4 hr 25 min 37 sec) 
Heartbeat CPU 0 instructions: 88000000 cycles: 170513609 heartbeat IPC: 0.564895 cumulative IPC: 0.47405 (Simulation time: 4 hr 27 min 42 sec) 
Heartbeat CPU 0 instructions: 89000001 cycles: 174852119 heartbeat IPC: 0.230494 cumulative IPC: 0.467793 (Simulation time: 4 hr 29 min 50 sec) 
Heartbeat CPU 0 instructions: 90000002 cycles: 178980417 heartbeat IPC: 0.242231 cumulative IPC: 0.462411 (Simulation time: 4 hr 31 min 51 sec) 
Heartbeat CPU 0 instructions: 91000000 cycles: 180674628 heartbeat IPC: 0.590244 cumulative IPC: 0.463651 (Simulation time: 4 hr 33 min 43 sec) 
Heartbeat CPU 0 instructions: 92000000 cycles: 182439217 heartbeat IPC: 0.566704 cumulative IPC: 0.464681 (Simulation time: 4 hr 35 min 24 sec) 
Heartbeat CPU 0 instructions: 93000001 cycles: 184210954 heartbeat IPC: 0.564418 cumulative IPC: 0.465673 (Simulation time: 4 hr 37 min 5 sec) 
Heartbeat CPU 0 instructions: 94000003 cycles: 185985387 heartbeat IPC: 0.563561 cumulative IPC: 0.466637 (Simulation time: 4 hr 38 min 47 sec) 
Heartbeat CPU 0 instructions: 95000001 cycles: 187706540 heartbeat IPC: 0.581005 cumulative IPC: 0.467721 (Simulation time: 4 hr 40 min 24 sec) 
Heartbeat CPU 0 instructions: 96000000 cycles: 189427832 heartbeat IPC: 0.580958 cumulative IPC: 0.468783 (Simulation time: 4 hr 41 min 56 sec) 
Heartbeat CPU 0 instructions: 97000002 cycles: 191197412 heartbeat IPC: 0.565107 cumulative IPC: 0.469703 (Simulation time: 4 hr 43 min 22 sec) 
Heartbeat CPU 0 instructions: 98000000 cycles: 192970713 heartbeat IPC: 0.563919 cumulative IPC: 0.470597 (Simulation time: 4 hr 44 min 43 sec) 
Heartbeat CPU 0 instructions: 99000002 cycles: 194739866 heartbeat IPC: 0.565243 cumulative IPC: 0.471484 (Simulation time: 4 hr 45 min 58 sec) 
Heartbeat CPU 0 instructions: 100000000 cycles: 196431795 heartbeat IPC: 0.59104 cumulative IPC: 0.472546 (Simulation time: 4 hr 47 min 10 sec) 
Heartbeat CPU 0 instructions: 101000002 cycles: 198187185 heartbeat IPC: 0.569675 cumulative IPC: 0.473433 (Simulation time: 4 hr 48 min 17 sec) 
Heartbeat CPU 0 instructions: 102000000 cycles: 201535752 heartbeat IPC: 0.298635 cumulative IPC: 0.47044 (Simulation time: 4 hr 49 min 32 sec) 
Heartbeat CPU 0 instructions: 103000002 cycles: 206661755 heartbeat IPC: 0.195084 cumulative IPC: 0.463407 (Simulation time: 4 hr 50 min 39 sec) 
Heartbeat CPU 0 instructions: 104000000 cycles: 208388430 heartbeat IPC: 0.579147 cumulative IPC: 0.464394 (Simulation time: 4 hr 51 min 31 sec) 
Heartbeat CPU 0 instructions: 105000002 cycles: 210104492 heartbeat IPC: 0.582731 cumulative IPC: 0.465389 (Simulation time: 4 hr 52 min 19 sec) 
Heartbeat CPU 0 instructions: 106000001 cycles: 211877955 heartbeat IPC: 0.563868 cumulative IPC: 0.466237 (Simulation time: 4 hr 53 min 1 sec) 
Heartbeat CPU 0 instructions: 107000003 cycles: 213649334 heartbeat IPC: 0.564533 cumulative IPC: 0.467075 (Simulation time: 4 hr 53 min 41 sec) 
Heartbeat CPU 0 instructions: 108000000 cycles: 215417585 heartbeat IPC: 0.565529 cumulative IPC: 0.467907 (Simulation time: 4 hr 54 min 21 sec) 
Heartbeat CPU 0 instructions: 109000003 cycles: 217115291 heartbeat IPC: 0.589032 cumulative IPC: 0.468881 (Simulation time: 4 hr 54 min 56 sec) 
Heartbeat CPU 0 instructions: 110000002 cycles: 218865540 heartbeat IPC: 0.571347 cumulative IPC: 0.469723 (Simulation time: 4 hr 55 min 30 sec) 
Finished CPU 0 instructions: 100000003 cycles: 212891428 cummulative IPC: 0.469723 (Simulation time: 4 hr 55 min 30 sec) 

ChampSim completed all CPUs

Region of Interest Statistics

CPU 0 cummulative IPC: 0.469723 instructions: 100000003 cycles: 212891428
LLC TOTAL     ACCESS:    1168926  HIT:     311999  MISS:     856927
LLC LOAD      ACCESS:      25608  HIT:       2424  MISS:      23184
LLC RFO       ACCESS:     265309  HIT:      71648  MISS:     193661
LLC PREFETCH  ACCESS:     610663  HIT:      94414  MISS:     516249
LLC WRITEBACK ACCESS:     267346  HIT:     143513  MISS:     123833
Insertion Distribution: 
	LOAD 0 0 12920 11425 
	RFO 13959 0 64672 126302 
	PREF 0 56759 175813 332643 
	WRITEBACK 0 0 0 125664 
Total Prefetch Downgrades: 54692
