
*** ChampSim Multicore Out-of-Order Simulator ***

Warmup Instructions: 10000000
Simulation Instructions: 100000000
Configuration: 2
Number of CPUs: 1
LLC sets: 2048
LLC ways: 16
Off-chip DRAM Channels: 1 Width: 64-bit Data Rate: 1600 MT/s

CPU 0 runs /datasets/cs240c-wi22-a00-public/data/Assignment2-gz/omnetpp_340B.trace.gz
CPU 0 L1D next line prefetcher
CPU 0 L2C IP-based stride prefetcher
Initialize SRRIP state
Heartbeat CPU 0 instructions: 1000001 cycles: 576944 heartbeat IPC: 1.73327 cumulative IPC: 1.73327 (Simulation time: 0 hr 2 min 58 sec) 
Heartbeat CPU 0 instructions: 2000000 cycles: 1160902 heartbeat IPC: 1.71245 cumulative IPC: 1.7228 (Simulation time: 0 hr 5 min 41 sec) 
Heartbeat CPU 0 instructions: 3000001 cycles: 1758188 heartbeat IPC: 1.67424 cumulative IPC: 1.7063 (Simulation time: 0 hr 8 min 25 sec) 
Heartbeat CPU 0 instructions: 4000000 cycles: 2379077 heartbeat IPC: 1.61059 cumulative IPC: 1.68132 (Simulation time: 0 hr 11 min 10 sec) 
Heartbeat CPU 0 instructions: 5000002 cycles: 2954468 heartbeat IPC: 1.73795 cumulative IPC: 1.69235 (Simulation time: 0 hr 13 min 58 sec) 
Heartbeat CPU 0 instructions: 6000003 cycles: 3555930 heartbeat IPC: 1.66262 cumulative IPC: 1.68732 (Simulation time: 0 hr 16 min 42 sec) 
Heartbeat CPU 0 instructions: 7000003 cycles: 4205396 heartbeat IPC: 1.53973 cumulative IPC: 1.66453 (Simulation time: 0 hr 19 min 26 sec) 
Heartbeat CPU 0 instructions: 8000000 cycles: 4799915 heartbeat IPC: 1.68203 cumulative IPC: 1.6667 (Simulation time: 0 hr 22 min 8 sec) 
Heartbeat CPU 0 instructions: 9000002 cycles: 5433287 heartbeat IPC: 1.57885 cumulative IPC: 1.65646 (Simulation time: 0 hr 24 min 54 sec) 
Heartbeat CPU 0 instructions: 10000002 cycles: 6027945 heartbeat IPC: 1.68164 cumulative IPC: 1.65894 (Simulation time: 0 hr 27 min 27 sec) 

Warmup complete CPU 0 instructions: 10000002 cycles: 6027945 (Simulation time: 0 hr 27 min 27 sec) 

Heartbeat CPU 0 instructions: 11000000 cycles: 9653213 heartbeat IPC: 0.275841 cumulative IPC: 0.275841 (Simulation time: 0 hr 30 min 38 sec) 
Heartbeat CPU 0 instructions: 12000000 cycles: 13178139 heartbeat IPC: 0.283694 cumulative IPC: 0.279712 (Simulation time: 0 hr 33 min 48 sec) 
Heartbeat CPU 0 instructions: 13000000 cycles: 16922327 heartbeat IPC: 0.267081 cumulative IPC: 0.275371 (Simulation time: 0 hr 37 min 8 sec) 
Heartbeat CPU 0 instructions: 14000001 cycles: 20774597 heartbeat IPC: 0.259587 cumulative IPC: 0.271248 (Simulation time: 0 hr 40 min 22 sec) 
Heartbeat CPU 0 instructions: 15000003 cycles: 24747128 heartbeat IPC: 0.251729 cumulative IPC: 0.267106 (Simulation time: 0 hr 44 min 1 sec) 
Heartbeat CPU 0 instructions: 16000000 cycles: 28910605 heartbeat IPC: 0.240183 cumulative IPC: 0.262207 (Simulation time: 0 hr 47 min 32 sec) 
Heartbeat CPU 0 instructions: 17000000 cycles: 32623447 heartbeat IPC: 0.269335 cumulative IPC: 0.263202 (Simulation time: 0 hr 50 min 52 sec) 
Heartbeat CPU 0 instructions: 18000000 cycles: 36513122 heartbeat IPC: 0.257091 cumulative IPC: 0.262423 (Simulation time: 0 hr 54 min 13 sec) 
Heartbeat CPU 0 instructions: 19000000 cycles: 40798305 heartbeat IPC: 0.233362 cumulative IPC: 0.258841 (Simulation time: 0 hr 57 min 22 sec) 
Heartbeat CPU 0 instructions: 20000000 cycles: 44836468 heartbeat IPC: 0.247637 cumulative IPC: 0.257675 (Simulation time: 1 hr 0 min 34 sec) 
Heartbeat CPU 0 instructions: 21000000 cycles: 48327394 heartbeat IPC: 0.286457 cumulative IPC: 0.260051 (Simulation time: 1 hr 3 min 52 sec) 
Heartbeat CPU 0 instructions: 22000001 cycles: 52169579 heartbeat IPC: 0.260269 cumulative IPC: 0.260069 (Simulation time: 1 hr 7 min 18 sec) 
Heartbeat CPU 0 instructions: 23000001 cycles: 55948789 heartbeat IPC: 0.264606 cumulative IPC: 0.260412 (Simulation time: 1 hr 10 min 42 sec) 
Heartbeat CPU 0 instructions: 24000000 cycles: 59690016 heartbeat IPC: 0.267292 cumulative IPC: 0.260892 (Simulation time: 1 hr 13 min 55 sec) 
Heartbeat CPU 0 instructions: 25000000 cycles: 63613127 heartbeat IPC: 0.2549 cumulative IPC: 0.260484 (Simulation time: 1 hr 17 min 6 sec) 
Heartbeat CPU 0 instructions: 26000001 cycles: 67602815 heartbeat IPC: 0.250646 cumulative IPC: 0.259846 (Simulation time: 1 hr 20 min 27 sec) 
Heartbeat CPU 0 instructions: 27000000 cycles: 71642646 heartbeat IPC: 0.247535 cumulative IPC: 0.259088 (Simulation time: 1 hr 23 min 50 sec) 
Heartbeat CPU 0 instructions: 28000000 cycles: 75708404 heartbeat IPC: 0.245957 cumulative IPC: 0.258322 (Simulation time: 1 hr 27 min 28 sec) 
Heartbeat CPU 0 instructions: 29000003 cycles: 79754563 heartbeat IPC: 0.247149 cumulative IPC: 0.257709 (Simulation time: 1 hr 30 min 58 sec) 
Heartbeat CPU 0 instructions: 30000000 cycles: 83410959 heartbeat IPC: 0.273493 cumulative IPC: 0.258455 (Simulation time: 1 hr 34 min 12 sec) 
Heartbeat CPU 0 instructions: 31000000 cycles: 87257369 heartbeat IPC: 0.259983 cumulative IPC: 0.258527 (Simulation time: 1 hr 37 min 35 sec) 
Heartbeat CPU 0 instructions: 32000000 cycles: 90963019 heartbeat IPC: 0.269858 cumulative IPC: 0.259021 (Simulation time: 1 hr 40 min 52 sec) 
Heartbeat CPU 0 instructions: 33000003 cycles: 94711442 heartbeat IPC: 0.26678 cumulative IPC: 0.259349 (Simulation time: 1 hr 44 min 16 sec) 
Heartbeat CPU 0 instructions: 34000001 cycles: 98832807 heartbeat IPC: 0.242638 cumulative IPC: 0.258607 (Simulation time: 1 hr 47 min 37 sec) 
Heartbeat CPU 0 instructions: 35000002 cycles: 102316636 heartbeat IPC: 0.287041 cumulative IPC: 0.259636 (Simulation time: 1 hr 51 min 3 sec) 
Heartbeat CPU 0 instructions: 36000000 cycles: 106584787 heartbeat IPC: 0.234293 cumulative IPC: 0.25856 (Simulation time: 1 hr 54 min 34 sec) 
Heartbeat CPU 0 instructions: 37000000 cycles: 110945016 heartbeat IPC: 0.229346 cumulative IPC: 0.257346 (Simulation time: 1 hr 58 min 7 sec) 
Heartbeat CPU 0 instructions: 38000000 cycles: 114694550 heartbeat IPC: 0.2667 cumulative IPC: 0.257669 (Simulation time: 2 hr 1 min 45 sec) 
Heartbeat CPU 0 instructions: 39000001 cycles: 118876911 heartbeat IPC: 0.2391 cumulative IPC: 0.256981 (Simulation time: 2 hr 5 min 52 sec) 
Heartbeat CPU 0 instructions: 40000000 cycles: 122330843 heartbeat IPC: 0.289525 cumulative IPC: 0.257947 (Simulation time: 2 hr 9 min 27 sec) 
Heartbeat CPU 0 instructions: 41000000 cycles: 126023888 heartbeat IPC: 0.270779 cumulative IPC: 0.258342 (Simulation time: 2 hr 13 min 0 sec) 
Heartbeat CPU 0 instructions: 42000001 cycles: 130342463 heartbeat IPC: 0.231558 cumulative IPC: 0.257412 (Simulation time: 2 hr 16 min 44 sec) 
Heartbeat CPU 0 instructions: 43000001 cycles: 134483354 heartbeat IPC: 0.241494 cumulative IPC: 0.256898 (Simulation time: 2 hr 20 min 17 sec) 
Heartbeat CPU 0 instructions: 44000000 cycles: 138204152 heartbeat IPC: 0.268759 cumulative IPC: 0.257232 (Simulation time: 2 hr 24 min 1 sec) 
Heartbeat CPU 0 instructions: 45000003 cycles: 142127306 heartbeat IPC: 0.254898 cumulative IPC: 0.257165 (Simulation time: 2 hr 27 min 34 sec) 
Heartbeat CPU 0 instructions: 46000003 cycles: 146234091 heartbeat IPC: 0.243499 cumulative IPC: 0.256765 (Simulation time: 2 hr 31 min 25 sec) 
Heartbeat CPU 0 instructions: 47000000 cycles: 149432389 heartbeat IPC: 0.312665 cumulative IPC: 0.258012 (Simulation time: 2 hr 34 min 43 sec) 
Heartbeat CPU 0 instructions: 48000000 cycles: 153440673 heartbeat IPC: 0.249483 cumulative IPC: 0.25778 (Simulation time: 2 hr 38 min 21 sec) 
Heartbeat CPU 0 instructions: 49000000 cycles: 156492834 heartbeat IPC: 0.327637 cumulative IPC: 0.259197 (Simulation time: 2 hr 42 min 6 sec) 
Heartbeat CPU 0 instructions: 50000001 cycles: 160576887 heartbeat IPC: 0.244855 cumulative IPC: 0.258818 (Simulation time: 2 hr 45 min 48 sec) 
Heartbeat CPU 0 instructions: 51000003 cycles: 164283371 heartbeat IPC: 0.269798 cumulative IPC: 0.259075 (Simulation time: 2 hr 49 min 41 sec) 
Heartbeat CPU 0 instructions: 52000000 cycles: 168293523 heartbeat IPC: 0.249366 cumulative IPC: 0.258835 (Simulation time: 2 hr 53 min 57 sec) 
Heartbeat CPU 0 instructions: 53000000 cycles: 172845195 heartbeat IPC: 0.219699 cumulative IPC: 0.257767 (Simulation time: 2 hr 57 min 51 sec) 
Heartbeat CPU 0 instructions: 54000002 cycles: 176943497 heartbeat IPC: 0.244004 cumulative IPC: 0.257437 (Simulation time: 3 hr 1 min 24 sec) 
Heartbeat CPU 0 instructions: 55000001 cycles: 180810419 heartbeat IPC: 0.258603 cumulative IPC: 0.257463 (Simulation time: 3 hr 4 min 49 sec) 
Heartbeat CPU 0 instructions: 56000000 cycles: 185133577 heartbeat IPC: 0.231312 cumulative IPC: 0.256832 (Simulation time: 3 hr 8 min 20 sec) 
Heartbeat CPU 0 instructions: 57000001 cycles: 189252339 heartbeat IPC: 0.242792 cumulative IPC: 0.256516 (Simulation time: 3 hr 11 min 57 sec) 
Heartbeat CPU 0 instructions: 58000000 cycles: 192555941 heartbeat IPC: 0.3027 cumulative IPC: 0.257334 (Simulation time: 3 hr 15 min 19 sec) 
Heartbeat CPU 0 instructions: 59000003 cycles: 196481831 heartbeat IPC: 0.25472 cumulative IPC: 0.25728 (Simulation time: 3 hr 18 min 46 sec) 
Heartbeat CPU 0 instructions: 60000000 cycles: 200858785 heartbeat IPC: 0.228469 cumulative IPC: 0.256633 (Simulation time: 3 hr 22 min 21 sec) 
Heartbeat CPU 0 instructions: 61000001 cycles: 205242340 heartbeat IPC: 0.228126 cumulative IPC: 0.256006 (Simulation time: 3 hr 25 min 41 sec) 
Heartbeat CPU 0 instructions: 62000000 cycles: 209634177 heartbeat IPC: 0.227695 cumulative IPC: 0.255395 (Simulation time: 3 hr 28 min 47 sec) 
Heartbeat CPU 0 instructions: 63000001 cycles: 213373223 heartbeat IPC: 0.267448 cumulative IPC: 0.255612 (Simulation time: 3 hr 32 min 11 sec) 
Heartbeat CPU 0 instructions: 64000000 cycles: 217207120 heartbeat IPC: 0.260831 cumulative IPC: 0.255707 (Simulation time: 3 hr 35 min 28 sec) 
Heartbeat CPU 0 instructions: 65000001 cycles: 220646870 heartbeat IPC: 0.290719 cumulative IPC: 0.256268 (Simulation time: 3 hr 38 min 38 sec) 
Heartbeat CPU 0 instructions: 66000002 cycles: 224718027 heartbeat IPC: 0.245631 cumulative IPC: 0.25607 (Simulation time: 3 hr 41 min 56 sec) 
Heartbeat CPU 0 instructions: 67000002 cycles: 228485509 heartbeat IPC: 0.265429 cumulative IPC: 0.256229 (Simulation time: 3 hr 45 min 16 sec) 
Heartbeat CPU 0 instructions: 68000000 cycles: 232306289 heartbeat IPC: 0.261726 cumulative IPC: 0.256321 (Simulation time: 3 hr 48 min 30 sec) 
Heartbeat CPU 0 instructions: 69000000 cycles: 236216759 heartbeat IPC: 0.255724 cumulative IPC: 0.256311 (Simulation time: 3 hr 51 min 46 sec) 
Heartbeat CPU 0 instructions: 70000001 cycles: 239788234 heartbeat IPC: 0.279997 cumulative IPC: 0.256673 (Simulation time: 3 hr 54 min 42 sec) 
Heartbeat CPU 0 instructions: 71000003 cycles: 243664923 heartbeat IPC: 0.257953 cumulative IPC: 0.256694 (Simulation time: 3 hr 57 min 57 sec) 
Heartbeat CPU 0 instructions: 72000000 cycles: 248087994 heartbeat IPC: 0.226087 cumulative IPC: 0.256135 (Simulation time: 4 hr 1 min 18 sec) 
Heartbeat CPU 0 instructions: 73000002 cycles: 252089673 heartbeat IPC: 0.249896 cumulative IPC: 0.256033 (Simulation time: 4 hr 4 min 26 sec) 
Heartbeat CPU 0 instructions: 74000000 cycles: 255889632 heartbeat IPC: 0.26316 cumulative IPC: 0.256142 (Simulation time: 4 hr 7 min 49 sec) 
Heartbeat CPU 0 instructions: 75000003 cycles: 259975602 heartbeat IPC: 0.244741 cumulative IPC: 0.255958 (Simulation time: 4 hr 11 min 12 sec) 
Heartbeat CPU 0 instructions: 76000000 cycles: 263831947 heartbeat IPC: 0.259312 cumulative IPC: 0.256008 (Simulation time: 4 hr 14 min 24 sec) 
Heartbeat CPU 0 instructions: 77000002 cycles: 268410016 heartbeat IPC: 0.218433 cumulative IPC: 0.255353 (Simulation time: 4 hr 17 min 30 sec) 
Heartbeat CPU 0 instructions: 78000003 cycles: 272249042 heartbeat IPC: 0.260483 cumulative IPC: 0.255427 (Simulation time: 4 hr 20 min 28 sec) 
Heartbeat CPU 0 instructions: 79000002 cycles: 276129911 heartbeat IPC: 0.257674 cumulative IPC: 0.255459 (Simulation time: 4 hr 23 min 21 sec) 
Heartbeat CPU 0 instructions: 80000000 cycles: 279952237 heartbeat IPC: 0.26162 cumulative IPC: 0.255545 (Simulation time: 4 hr 26 min 6 sec) 
Heartbeat CPU 0 instructions: 81000002 cycles: 284078026 heartbeat IPC: 0.242378 cumulative IPC: 0.25535 (Simulation time: 4 hr 28 min 45 sec) 
Heartbeat CPU 0 instructions: 82000000 cycles: 288513451 heartbeat IPC: 0.225457 cumulative IPC: 0.25488 (Simulation time: 4 hr 31 min 3 sec) 
Heartbeat CPU 0 instructions: 83000002 cycles: 292244392 heartbeat IPC: 0.268029 cumulative IPC: 0.255052 (Simulation time: 4 hr 33 min 15 sec) 
Heartbeat CPU 0 instructions: 84000000 cycles: 296202031 heartbeat IPC: 0.252675 cumulative IPC: 0.255019 (Simulation time: 4 hr 35 min 20 sec) 
Heartbeat CPU 0 instructions: 85000000 cycles: 300065620 heartbeat IPC: 0.258827 cumulative IPC: 0.255069 (Simulation time: 4 hr 37 min 19 sec) 
Heartbeat CPU 0 instructions: 86000000 cycles: 304039459 heartbeat IPC: 0.251646 cumulative IPC: 0.255024 (Simulation time: 4 hr 39 min 19 sec) 
Heartbeat CPU 0 instructions: 87000001 cycles: 307797767 heartbeat IPC: 0.266077 cumulative IPC: 0.255161 (Simulation time: 4 hr 41 min 13 sec) 
Heartbeat CPU 0 instructions: 88000000 cycles: 311598321 heartbeat IPC: 0.263119 cumulative IPC: 0.25526 (Simulation time: 4 hr 42 min 56 sec) 
Heartbeat CPU 0 instructions: 89000003 cycles: 315088142 heartbeat IPC: 0.286548 cumulative IPC: 0.255614 (Simulation time: 4 hr 44 min 25 sec) 
Heartbeat CPU 0 instructions: 90000000 cycles: 318909383 heartbeat IPC: 0.261694 cumulative IPC: 0.255688 (Simulation time: 4 hr 45 min 48 sec) 
Heartbeat CPU 0 instructions: 91000001 cycles: 322402006 heartbeat IPC: 0.286318 cumulative IPC: 0.256026 (Simulation time: 4 hr 47 min 0 sec) 
Heartbeat CPU 0 instructions: 92000000 cycles: 326433191 heartbeat IPC: 0.248066 cumulative IPC: 0.255926 (Simulation time: 4 hr 48 min 11 sec) 
Heartbeat CPU 0 instructions: 93000001 cycles: 330852431 heartbeat IPC: 0.226283 cumulative IPC: 0.255523 (Simulation time: 4 hr 49 min 22 sec) 
Heartbeat CPU 0 instructions: 94000001 cycles: 334701174 heartbeat IPC: 0.259825 cumulative IPC: 0.255573 (Simulation time: 4 hr 50 min 33 sec) 
Heartbeat CPU 0 instructions: 95000000 cycles: 338699093 heartbeat IPC: 0.25013 cumulative IPC: 0.255508 (Simulation time: 4 hr 51 min 36 sec) 
Heartbeat CPU 0 instructions: 96000000 cycles: 343086141 heartbeat IPC: 0.227944 cumulative IPC: 0.255149 (Simulation time: 4 hr 52 min 31 sec) 
Heartbeat CPU 0 instructions: 97000000 cycles: 346703983 heartbeat IPC: 0.276408 cumulative IPC: 0.255375 (Simulation time: 4 hr 53 min 22 sec) 
Heartbeat CPU 0 instructions: 98000000 cycles: 350951593 heartbeat IPC: 0.235427 cumulative IPC: 0.255129 (Simulation time: 4 hr 54 min 8 sec) 
Heartbeat CPU 0 instructions: 99000000 cycles: 355396369 heartbeat IPC: 0.224983 cumulative IPC: 0.254745 (Simulation time: 4 hr 54 min 49 sec) 
Heartbeat CPU 0 instructions: 100000000 cycles: 359459792 heartbeat IPC: 0.246098 cumulative IPC: 0.254646 (Simulation time: 4 hr 55 min 27 sec) 
Heartbeat CPU 0 instructions: 101000000 cycles: 363365540 heartbeat IPC: 0.256033 cumulative IPC: 0.254661 (Simulation time: 4 hr 56 min 3 sec) 
Heartbeat CPU 0 instructions: 102000003 cycles: 367535650 heartbeat IPC: 0.239803 cumulative IPC: 0.25449 (Simulation time: 4 hr 56 min 34 sec) 
Heartbeat CPU 0 instructions: 103000000 cycles: 371369787 heartbeat IPC: 0.260814 cumulative IPC: 0.254556 (Simulation time: 4 hr 57 min 0 sec) 
Heartbeat CPU 0 instructions: 104000000 cycles: 375130725 heartbeat IPC: 0.265891 cumulative IPC: 0.254672 (Simulation time: 4 hr 57 min 27 sec) 
Heartbeat CPU 0 instructions: 105000003 cycles: 379139510 heartbeat IPC: 0.249453 cumulative IPC: 0.254616 (Simulation time: 4 hr 57 min 51 sec) 
Heartbeat CPU 0 instructions: 106000001 cycles: 382701298 heartbeat IPC: 0.280757 cumulative IPC: 0.254863 (Simulation time: 4 hr 58 min 13 sec) 
Heartbeat CPU 0 instructions: 107000000 cycles: 386869137 heartbeat IPC: 0.239932 cumulative IPC: 0.254699 (Simulation time: 4 hr 58 min 34 sec) 
Heartbeat CPU 0 instructions: 108000000 cycles: 390854986 heartbeat IPC: 0.250888 cumulative IPC: 0.25466 (Simulation time: 4 hr 58 min 55 sec) 
Heartbeat CPU 0 instructions: 109000000 cycles: 395296610 heartbeat IPC: 0.225143 cumulative IPC: 0.254323 (Simulation time: 4 hr 59 min 14 sec) 
Heartbeat CPU 0 instructions: 110000000 cycles: 398941649 heartbeat IPC: 0.274345 cumulative IPC: 0.254509 (Simulation time: 4 hr 59 min 33 sec) 
Finished CPU 0 instructions: 100000000 cycles: 392913708 cummulative IPC: 0.254509 (Simulation time: 4 hr 59 min 33 sec) 

ChampSim completed all CPUs

Region of Interest Statistics

CPU 0 cummulative IPC: 0.254509 instructions: 100000000 cycles: 392913708
LLC TOTAL     ACCESS:    4309262  HIT:    1564076  MISS:    2745186
LLC LOAD      ACCESS:    1522772  HIT:     441264  MISS:    1081508
LLC RFO       ACCESS:     250169  HIT:      82664  MISS:     167505
LLC PREFETCH  ACCESS:    1530285  HIT:     256430  MISS:    1273855
LLC WRITEBACK ACCESS:    1006036  HIT:     783718  MISS:     222318
Insertion Distribution: 
	LOAD 210794 0 445717 522287 
	RFO 76817 0 77378 30068 
	PREF 0 23049 448132 944583 
	WRITEBACK 0 0 0 242961 
Total Prefetch Downgrades: 40101
