
*** ChampSim Multicore Out-of-Order Simulator ***

Warmup Instructions: 10000000
Simulation Instructions: 100000000
Configuration: 2
Number of CPUs: 1
LLC sets: 2048
LLC ways: 16
Off-chip DRAM Channels: 1 Width: 64-bit Data Rate: 1600 MT/s

CPU 0 runs /datasets/cs240c-wi22-a00-public/data/Assignment2-gz/lbm_1004B.trace.gz
CPU 0 L1D next line prefetcher
CPU 0 L2C IP-based stride prefetcher
Initialize SRRIP state
Heartbeat CPU 0 instructions: 1000002 cycles: 391414 heartbeat IPC: 2.55484 cumulative IPC: 2.55484 (Simulation time: 0 hr 2 min 29 sec) 
Heartbeat CPU 0 instructions: 2000001 cycles: 782838 heartbeat IPC: 2.55477 cumulative IPC: 2.55481 (Simulation time: 0 hr 4 min 47 sec) 
Heartbeat CPU 0 instructions: 3000001 cycles: 1174187 heartbeat IPC: 2.55526 cumulative IPC: 2.55496 (Simulation time: 0 hr 7 min 21 sec) 
Heartbeat CPU 0 instructions: 4000000 cycles: 1570375 heartbeat IPC: 2.52405 cumulative IPC: 2.54716 (Simulation time: 0 hr 9 min 48 sec) 
Heartbeat CPU 0 instructions: 5000002 cycles: 1961795 heartbeat IPC: 2.55481 cumulative IPC: 2.54869 (Simulation time: 0 hr 12 min 24 sec) 
Heartbeat CPU 0 instructions: 6000002 cycles: 2353162 heartbeat IPC: 2.55515 cumulative IPC: 2.54976 (Simulation time: 0 hr 14 min 48 sec) 
Heartbeat CPU 0 instructions: 7000003 cycles: 2749270 heartbeat IPC: 2.52457 cumulative IPC: 2.54613 (Simulation time: 0 hr 17 min 16 sec) 
Heartbeat CPU 0 instructions: 8000000 cycles: 3140633 heartbeat IPC: 2.55516 cumulative IPC: 2.54726 (Simulation time: 0 hr 19 min 34 sec) 
Heartbeat CPU 0 instructions: 9000003 cycles: 3532080 heartbeat IPC: 2.55463 cumulative IPC: 2.54807 (Simulation time: 0 hr 21 min 57 sec) 
Heartbeat CPU 0 instructions: 10000000 cycles: 3923454 heartbeat IPC: 2.55509 cumulative IPC: 2.54877 (Simulation time: 0 hr 24 min 26 sec) 

Warmup complete CPU 0 instructions: 10000004 cycles: 3923455 (Simulation time: 0 hr 24 min 26 sec) 

Heartbeat CPU 0 instructions: 11000002 cycles: 5531274 heartbeat IPC: 0.621961 cumulative IPC: 0.621959 (Simulation time: 0 hr 27 min 15 sec) 
Heartbeat CPU 0 instructions: 12000000 cycles: 7074411 heartbeat IPC: 0.648029 cumulative IPC: 0.634727 (Simulation time: 0 hr 30 min 11 sec) 
Heartbeat CPU 0 instructions: 13000002 cycles: 8601035 heartbeat IPC: 0.655041 cumulative IPC: 0.641357 (Simulation time: 0 hr 33 min 6 sec) 
Heartbeat CPU 0 instructions: 14000003 cycles: 10194244 heartbeat IPC: 0.627665 cumulative IPC: 0.637878 (Simulation time: 0 hr 36 min 2 sec) 
Heartbeat CPU 0 instructions: 15000003 cycles: 11718627 heartbeat IPC: 0.656003 cumulative IPC: 0.641423 (Simulation time: 0 hr 38 min 43 sec) 
Heartbeat CPU 0 instructions: 16000000 cycles: 13228897 heartbeat IPC: 0.662131 cumulative IPC: 0.644784 (Simulation time: 0 hr 41 min 34 sec) 
Heartbeat CPU 0 instructions: 17000000 cycles: 14820715 heartbeat IPC: 0.628213 cumulative IPC: 0.642363 (Simulation time: 0 hr 44 min 25 sec) 
Heartbeat CPU 0 instructions: 18000002 cycles: 16330921 heartbeat IPC: 0.662163 cumulative IPC: 0.644773 (Simulation time: 0 hr 47 min 10 sec) 
Heartbeat CPU 0 instructions: 19000002 cycles: 17845792 heartbeat IPC: 0.660122 cumulative IPC: 0.646443 (Simulation time: 0 hr 49 min 41 sec) 
Heartbeat CPU 0 instructions: 20000000 cycles: 19354598 heartbeat IPC: 0.662774 cumulative IPC: 0.64804 (Simulation time: 0 hr 52 min 20 sec) 
Heartbeat CPU 0 instructions: 21000003 cycles: 20912444 heartbeat IPC: 0.641914 cumulative IPC: 0.647478 (Simulation time: 0 hr 55 min 0 sec) 
Heartbeat CPU 0 instructions: 22000002 cycles: 22420698 heartbeat IPC: 0.663018 cumulative IPC: 0.648745 (Simulation time: 0 hr 57 min 54 sec) 
Heartbeat CPU 0 instructions: 23000001 cycles: 23927915 heartbeat IPC: 0.663474 cumulative IPC: 0.649855 (Simulation time: 1 hr 0 min 36 sec) 
Heartbeat CPU 0 instructions: 24000000 cycles: 25477147 heartbeat IPC: 0.64548 cumulative IPC: 0.64954 (Simulation time: 1 hr 3 min 14 sec) 
Heartbeat CPU 0 instructions: 25000003 cycles: 26982807 heartbeat IPC: 0.664163 cumulative IPC: 0.650495 (Simulation time: 1 hr 5 min 46 sec) 
Heartbeat CPU 0 instructions: 26000003 cycles: 28492677 heartbeat IPC: 0.662309 cumulative IPC: 0.651221 (Simulation time: 1 hr 8 min 28 sec) 
Heartbeat CPU 0 instructions: 27000001 cycles: 30008478 heartbeat IPC: 0.659716 cumulative IPC: 0.651715 (Simulation time: 1 hr 11 min 14 sec) 
Heartbeat CPU 0 instructions: 28000000 cycles: 31576851 heartbeat IPC: 0.637603 cumulative IPC: 0.650914 (Simulation time: 1 hr 13 min 58 sec) 
Heartbeat CPU 0 instructions: 29000002 cycles: 33091856 heartbeat IPC: 0.660065 cumulative IPC: 0.65139 (Simulation time: 1 hr 16 min 30 sec) 
Heartbeat CPU 0 instructions: 30000003 cycles: 34596356 heartbeat IPC: 0.664673 cumulative IPC: 0.652041 (Simulation time: 1 hr 19 min 12 sec) 
Heartbeat CPU 0 instructions: 31000001 cycles: 36153685 heartbeat IPC: 0.642124 cumulative IPC: 0.651562 (Simulation time: 1 hr 21 min 55 sec) 
Heartbeat CPU 0 instructions: 32000000 cycles: 37657177 heartbeat IPC: 0.665118 cumulative IPC: 0.652166 (Simulation time: 1 hr 24 min 30 sec) 
Heartbeat CPU 0 instructions: 33000000 cycles: 39180408 heartbeat IPC: 0.656499 cumulative IPC: 0.652353 (Simulation time: 1 hr 27 min 14 sec) 
Heartbeat CPU 0 instructions: 34000002 cycles: 40760594 heartbeat IPC: 0.632838 cumulative IPC: 0.651516 (Simulation time: 1 hr 30 min 6 sec) 
Heartbeat CPU 0 instructions: 35000001 cycles: 42266710 heartbeat IPC: 0.663959 cumulative IPC: 0.652005 (Simulation time: 1 hr 32 min 49 sec) 
Heartbeat CPU 0 instructions: 36000000 cycles: 43790670 heartbeat IPC: 0.656185 cumulative IPC: 0.652165 (Simulation time: 1 hr 35 min 28 sec) 
Heartbeat CPU 0 instructions: 37000002 cycles: 45296320 heartbeat IPC: 0.664166 cumulative IPC: 0.652602 (Simulation time: 1 hr 38 min 10 sec) 
Heartbeat CPU 0 instructions: 38000000 cycles: 46850501 heartbeat IPC: 0.643424 cumulative IPC: 0.652269 (Simulation time: 1 hr 41 min 0 sec) 
Heartbeat CPU 0 instructions: 39000003 cycles: 48375366 heartbeat IPC: 0.655798 cumulative IPC: 0.65239 (Simulation time: 1 hr 43 min 43 sec) 
Heartbeat CPU 0 instructions: 40000000 cycles: 49877801 heartbeat IPC: 0.665584 cumulative IPC: 0.652822 (Simulation time: 1 hr 46 min 18 sec) 
Heartbeat CPU 0 instructions: 41000002 cycles: 51426431 heartbeat IPC: 0.645733 cumulative IPC: 0.652591 (Simulation time: 1 hr 49 min 5 sec) 
Heartbeat CPU 0 instructions: 42000000 cycles: 52941788 heartbeat IPC: 0.659909 cumulative IPC: 0.652817 (Simulation time: 1 hr 51 min 54 sec) 
Heartbeat CPU 0 instructions: 43000002 cycles: 54456371 heartbeat IPC: 0.660249 cumulative IPC: 0.65304 (Simulation time: 1 hr 54 min 41 sec) 
Heartbeat CPU 0 instructions: 44000000 cycles: 56051358 heartbeat IPC: 0.626963 cumulative IPC: 0.652242 (Simulation time: 1 hr 57 min 23 sec) 
Heartbeat CPU 0 instructions: 45000000 cycles: 57554494 heartbeat IPC: 0.665276 cumulative IPC: 0.652607 (Simulation time: 2 hr 0 min 4 sec) 
Heartbeat CPU 0 instructions: 46000003 cycles: 59061404 heartbeat IPC: 0.663612 cumulative IPC: 0.652908 (Simulation time: 2 hr 2 min 52 sec) 
Heartbeat CPU 0 instructions: 47000002 cycles: 60590729 heartbeat IPC: 0.653883 cumulative IPC: 0.652934 (Simulation time: 2 hr 5 min 36 sec) 
Heartbeat CPU 0 instructions: 48000000 cycles: 62177890 heartbeat IPC: 0.630055 cumulative IPC: 0.652311 (Simulation time: 2 hr 8 min 17 sec) 
Heartbeat CPU 0 instructions: 49000000 cycles: 63671900 heartbeat IPC: 0.66934 cumulative IPC: 0.652737 (Simulation time: 2 hr 11 min 0 sec) 
Heartbeat CPU 0 instructions: 50000003 cycles: 65193780 heartbeat IPC: 0.657084 cumulative IPC: 0.652845 (Simulation time: 2 hr 13 min 47 sec) 
Heartbeat CPU 0 instructions: 51000001 cycles: 66766557 heartbeat IPC: 0.635817 cumulative IPC: 0.652418 (Simulation time: 2 hr 16 min 29 sec) 
Heartbeat CPU 0 instructions: 52000000 cycles: 68261589 heartbeat IPC: 0.668881 cumulative IPC: 0.652801 (Simulation time: 2 hr 19 min 23 sec) 
Heartbeat CPU 0 instructions: 53000002 cycles: 69774271 heartbeat IPC: 0.661079 cumulative IPC: 0.652991 (Simulation time: 2 hr 21 min 53 sec) 
Heartbeat CPU 0 instructions: 54000002 cycles: 71312861 heartbeat IPC: 0.649946 cumulative IPC: 0.652922 (Simulation time: 2 hr 24 min 32 sec) 
Heartbeat CPU 0 instructions: 55000001 cycles: 72885689 heartbeat IPC: 0.635797 cumulative IPC: 0.652531 (Simulation time: 2 hr 27 min 18 sec) 
Heartbeat CPU 0 instructions: 56000000 cycles: 74403757 heartbeat IPC: 0.658731 cumulative IPC: 0.652665 (Simulation time: 2 hr 29 min 52 sec) 
Heartbeat CPU 0 instructions: 57000003 cycles: 75905724 heartbeat IPC: 0.665796 cumulative IPC: 0.652939 (Simulation time: 2 hr 32 min 43 sec) 
Heartbeat CPU 0 instructions: 58000003 cycles: 77474158 heartbeat IPC: 0.637579 cumulative IPC: 0.652611 (Simulation time: 2 hr 35 min 24 sec) 
Heartbeat CPU 0 instructions: 59000002 cycles: 79011994 heartbeat IPC: 0.650264 cumulative IPC: 0.652563 (Simulation time: 2 hr 38 min 7 sec) 
Heartbeat CPU 0 instructions: 60000000 cycles: 80540046 heartbeat IPC: 0.654427 cumulative IPC: 0.6526 (Simulation time: 2 hr 41 min 2 sec) 
Heartbeat CPU 0 instructions: 61000003 cycles: 82120330 heartbeat IPC: 0.6328 cumulative IPC: 0.6522 (Simulation time: 2 hr 43 min 52 sec) 
Heartbeat CPU 0 instructions: 62000001 cycles: 83627412 heartbeat IPC: 0.663533 cumulative IPC: 0.652414 (Simulation time: 2 hr 46 min 47 sec) 
Heartbeat CPU 0 instructions: 63000001 cycles: 85125150 heartbeat IPC: 0.667674 cumulative IPC: 0.652696 (Simulation time: 2 hr 49 min 29 sec) 
Heartbeat CPU 0 instructions: 64000000 cycles: 86643775 heartbeat IPC: 0.65849 cumulative IPC: 0.652802 (Simulation time: 2 hr 52 min 4 sec) 
Heartbeat CPU 0 instructions: 65000000 cycles: 88224761 heartbeat IPC: 0.632517 cumulative IPC: 0.652422 (Simulation time: 2 hr 54 min 59 sec) 
Heartbeat CPU 0 instructions: 66000000 cycles: 89723542 heartbeat IPC: 0.667209 cumulative IPC: 0.65268 (Simulation time: 2 hr 57 min 39 sec) 
Heartbeat CPU 0 instructions: 67000000 cycles: 91241165 heartbeat IPC: 0.658925 cumulative IPC: 0.652788 (Simulation time: 3 hr 0 min 27 sec) 
Heartbeat CPU 0 instructions: 68000000 cycles: 92815361 heartbeat IPC: 0.635245 cumulative IPC: 0.652478 (Simulation time: 3 hr 3 min 11 sec) 
Heartbeat CPU 0 instructions: 69000000 cycles: 94313629 heartbeat IPC: 0.667437 cumulative IPC: 0.652726 (Simulation time: 3 hr 6 min 0 sec) 
Heartbeat CPU 0 instructions: 70000000 cycles: 95820058 heartbeat IPC: 0.663822 cumulative IPC: 0.652908 (Simulation time: 3 hr 8 min 53 sec) 
Heartbeat CPU 0 instructions: 71000002 cycles: 97393594 heartbeat IPC: 0.635513 cumulative IPC: 0.652615 (Simulation time: 3 hr 11 min 46 sec) 
Heartbeat CPU 0 instructions: 72000000 cycles: 99789418 heartbeat IPC: 0.417392 cumulative IPC: 0.646736 (Simulation time: 3 hr 15 min 7 sec) 
Heartbeat CPU 0 instructions: 73000001 cycles: 103151099 heartbeat IPC: 0.297471 cumulative IPC: 0.634904 (Simulation time: 3 hr 19 min 15 sec) 
Heartbeat CPU 0 instructions: 74000002 cycles: 109877531 heartbeat IPC: 0.148667 cumulative IPC: 0.604035 (Simulation time: 3 hr 25 min 31 sec) 
Heartbeat CPU 0 instructions: 75000003 cycles: 112265197 heartbeat IPC: 0.418819 cumulative IPC: 0.599953 (Simulation time: 3 hr 28 min 45 sec) 
Heartbeat CPU 0 instructions: 76000000 cycles: 114382746 heartbeat IPC: 0.472243 cumulative IPC: 0.597505 (Simulation time: 3 hr 32 min 6 sec) 
Heartbeat CPU 0 instructions: 77000000 cycles: 115766424 heartbeat IPC: 0.722712 cumulative IPC: 0.599054 (Simulation time: 3 hr 34 min 37 sec) 
Heartbeat CPU 0 instructions: 78000002 cycles: 117204507 heartbeat IPC: 0.695372 cumulative IPC: 0.600277 (Simulation time: 3 hr 37 min 15 sec) 
Heartbeat CPU 0 instructions: 79000002 cycles: 118791938 heartbeat IPC: 0.629949 cumulative IPC: 0.600687 (Simulation time: 3 hr 40 min 3 sec) 
Heartbeat CPU 0 instructions: 80000000 cycles: 120288303 heartbeat IPC: 0.668285 cumulative IPC: 0.601556 (Simulation time: 3 hr 42 min 50 sec) 
Heartbeat CPU 0 instructions: 81000001 cycles: 121736592 heartbeat IPC: 0.690471 cumulative IPC: 0.602649 (Simulation time: 3 hr 45 min 23 sec) 
Heartbeat CPU 0 instructions: 82000002 cycles: 123249198 heartbeat IPC: 0.661111 cumulative IPC: 0.60339 (Simulation time: 3 hr 48 min 4 sec) 
Heartbeat CPU 0 instructions: 83000003 cycles: 124845318 heartbeat IPC: 0.62652 cumulative IPC: 0.603696 (Simulation time: 3 hr 50 min 48 sec) 
Heartbeat CPU 0 instructions: 84000000 cycles: 126371637 heartbeat IPC: 0.655169 cumulative IPC: 0.604337 (Simulation time: 3 hr 53 min 23 sec) 
Heartbeat CPU 0 instructions: 85000000 cycles: 127893156 heartbeat IPC: 0.657238 cumulative IPC: 0.604986 (Simulation time: 3 hr 56 min 5 sec) 
Heartbeat CPU 0 instructions: 86000000 cycles: 129518943 heartbeat IPC: 0.615087 cumulative IPC: 0.605117 (Simulation time: 3 hr 58 min 44 sec) 
Heartbeat CPU 0 instructions: 87000002 cycles: 131040967 heartbeat IPC: 0.657021 cumulative IPC: 0.605739 (Simulation time: 4 hr 1 min 13 sec) 
Heartbeat CPU 0 instructions: 88000000 cycles: 132550405 heartbeat IPC: 0.662497 cumulative IPC: 0.606405 (Simulation time: 4 hr 3 min 51 sec) 
Heartbeat CPU 0 instructions: 89000003 cycles: 134083086 heartbeat IPC: 0.652453 cumulative IPC: 0.606947 (Simulation time: 4 hr 6 min 15 sec) 
Heartbeat CPU 0 instructions: 90000002 cycles: 135637314 heartbeat IPC: 0.643406 cumulative IPC: 0.607377 (Simulation time: 4 hr 8 min 53 sec) 
Heartbeat CPU 0 instructions: 91000001 cycles: 137159959 heartbeat IPC: 0.656751 cumulative IPC: 0.607941 (Simulation time: 4 hr 11 min 29 sec) 
Heartbeat CPU 0 instructions: 92000000 cycles: 138668379 heartbeat IPC: 0.662945 cumulative IPC: 0.608557 (Simulation time: 4 hr 13 min 52 sec) 
Heartbeat CPU 0 instructions: 93000003 cycles: 140226101 heartbeat IPC: 0.641965 cumulative IPC: 0.608939 (Simulation time: 4 hr 16 min 16 sec) 
Heartbeat CPU 0 instructions: 94000003 cycles: 141740933 heartbeat IPC: 0.660139 cumulative IPC: 0.609502 (Simulation time: 4 hr 18 min 28 sec) 
Heartbeat CPU 0 instructions: 95000000 cycles: 143237704 heartbeat IPC: 0.668103 cumulative IPC: 0.610131 (Simulation time: 4 hr 20 min 46 sec) 
Heartbeat CPU 0 instructions: 96000000 cycles: 144825012 heartbeat IPC: 0.629997 cumulative IPC: 0.610355 (Simulation time: 4 hr 22 min 54 sec) 
Heartbeat CPU 0 instructions: 97000002 cycles: 146356658 heartbeat IPC: 0.652894 cumulative IPC: 0.610813 (Simulation time: 4 hr 24 min 59 sec) 
Heartbeat CPU 0 instructions: 98000001 cycles: 147871295 heartbeat IPC: 0.660224 cumulative IPC: 0.611333 (Simulation time: 4 hr 26 min 56 sec) 
Heartbeat CPU 0 instructions: 99000000 cycles: 149367036 heartbeat IPC: 0.668564 cumulative IPC: 0.611921 (Simulation time: 4 hr 28 min 41 sec) 
Heartbeat CPU 0 instructions: 100000000 cycles: 150937788 heartbeat IPC: 0.636638 cumulative IPC: 0.612185 (Simulation time: 4 hr 30 min 20 sec) 
Heartbeat CPU 0 instructions: 101000000 cycles: 152442257 heartbeat IPC: 0.664686 cumulative IPC: 0.612717 (Simulation time: 4 hr 31 min 55 sec) 
Heartbeat CPU 0 instructions: 102000000 cycles: 153957293 heartbeat IPC: 0.66005 cumulative IPC: 0.613195 (Simulation time: 4 hr 33 min 30 sec) 
Heartbeat CPU 0 instructions: 103000001 cycles: 155552011 heartbeat IPC: 0.627071 cumulative IPC: 0.613341 (Simulation time: 4 hr 35 min 2 sec) 
Heartbeat CPU 0 instructions: 104000000 cycles: 157086521 heartbeat IPC: 0.651673 cumulative IPC: 0.613725 (Simulation time: 4 hr 36 min 30 sec) 
Heartbeat CPU 0 instructions: 105000001 cycles: 158605161 heartbeat IPC: 0.658485 cumulative IPC: 0.614164 (Simulation time: 4 hr 37 min 55 sec) 
Heartbeat CPU 0 instructions: 106000000 cycles: 160121651 heartbeat IPC: 0.659417 cumulative IPC: 0.614604 (Simulation time: 4 hr 39 min 19 sec) 
Heartbeat CPU 0 instructions: 107000000 cycles: 161733347 heartbeat IPC: 0.620464 cumulative IPC: 0.614664 (Simulation time: 4 hr 40 min 39 sec) 
Heartbeat CPU 0 instructions: 108000000 cycles: 163287055 heartbeat IPC: 0.643622 cumulative IPC: 0.614946 (Simulation time: 4 hr 41 min 55 sec) 
Heartbeat CPU 0 instructions: 109000003 cycles: 164804813 heartbeat IPC: 0.658869 cumulative IPC: 0.61536 (Simulation time: 4 hr 43 min 5 sec) 
Heartbeat CPU 0 instructions: 110000001 cycles: 166367955 heartbeat IPC: 0.639736 cumulative IPC: 0.615595 (Simulation time: 4 hr 44 min 22 sec) 
Finished CPU 0 instructions: 100000001 cycles: 162444501 cummulative IPC: 0.615595 (Simulation time: 4 hr 44 min 22 sec) 

ChampSim completed all CPUs

Region of Interest Statistics

CPU 0 cummulative IPC: 0.615595 instructions: 100000001 cycles: 162444501
LLC TOTAL     ACCESS:    5802037  HIT:    1300377  MISS:    4501660
LLC LOAD      ACCESS:     420654  HIT:      21674  MISS:     398980
LLC RFO       ACCESS:    2473077  HIT:     196329  MISS:    2276748
LLC PREFETCH  ACCESS:     435204  HIT:      27951  MISS:     407253
LLC WRITEBACK ACCESS:    2473102  HIT:    1054423  MISS:    1418679
Insertion Distribution: 
	LOAD 0 0 110121 319014 
	RFO 29921 0 833068 1621777 
	PREF 0 12500 155181 283028 
	WRITEBACK 0 0 0 1533773 
Total Prefetch Downgrades: 21630
