
*** ChampSim Multicore Out-of-Order Simulator ***

Warmup Instructions: 10000000
Simulation Instructions: 100000000
Configuration: 2
Number of CPUs: 1
LLC sets: 2048
LLC ways: 16
Off-chip DRAM Channels: 1 Width: 64-bit Data Rate: 1600 MT/s

CPU 0 runs /datasets/cs240c-wi22-a00-public/data/Assignment2-gz/perlbench_105B.trace.gz
CPU 0 L1D next line prefetcher
CPU 0 L2C IP-based stride prefetcher
config 2, num_core 1, llc_sets 2048
Heartbeat CPU 0 instructions: 1000000 cycles: 578016 heartbeat IPC: 1.73006 cumulative IPC: 1.73006 (Simulation time: 0 hr 2 min 29 sec) 
Heartbeat CPU 0 instructions: 2000001 cycles: 1164321 heartbeat IPC: 1.7056 cumulative IPC: 1.71774 (Simulation time: 0 hr 4 min 58 sec) 
Heartbeat CPU 0 instructions: 3000001 cycles: 1726557 heartbeat IPC: 1.77861 cumulative IPC: 1.73756 (Simulation time: 0 hr 7 min 22 sec) 
Heartbeat CPU 0 instructions: 4000000 cycles: 2305993 heartbeat IPC: 1.72581 cumulative IPC: 1.73461 (Simulation time: 0 hr 9 min 52 sec) 
Heartbeat CPU 0 instructions: 5000003 cycles: 2884260 heartbeat IPC: 1.72931 cumulative IPC: 1.73355 (Simulation time: 0 hr 12 min 20 sec) 
Heartbeat CPU 0 instructions: 6000003 cycles: 3447519 heartbeat IPC: 1.77538 cumulative IPC: 1.74038 (Simulation time: 0 hr 14 min 47 sec) 
Heartbeat CPU 0 instructions: 7000000 cycles: 4019987 heartbeat IPC: 1.74682 cumulative IPC: 1.7413 (Simulation time: 0 hr 17 min 10 sec) 
Heartbeat CPU 0 instructions: 8000000 cycles: 4598049 heartbeat IPC: 1.72992 cumulative IPC: 1.73987 (Simulation time: 0 hr 19 min 36 sec) 
Heartbeat CPU 0 instructions: 9000000 cycles: 5176571 heartbeat IPC: 1.72854 cumulative IPC: 1.7386 (Simulation time: 0 hr 22 min 7 sec) 
Heartbeat CPU 0 instructions: 10000002 cycles: 5745489 heartbeat IPC: 1.75773 cumulative IPC: 1.7405 (Simulation time: 0 hr 24 min 36 sec) 

Warmup complete CPU 0 instructions: 10000002 cycles: 5745489 (Simulation time: 0 hr 24 min 36 sec) 

Heartbeat CPU 0 instructions: 11000002 cycles: 8079760 heartbeat IPC: 0.428399 cumulative IPC: 0.428399 (Simulation time: 0 hr 27 min 51 sec) 
Heartbeat CPU 0 instructions: 12000000 cycles: 10435599 heartbeat IPC: 0.424476 cumulative IPC: 0.426429 (Simulation time: 0 hr 31 min 19 sec) 
Heartbeat CPU 0 instructions: 13000000 cycles: 12866632 heartbeat IPC: 0.411348 cumulative IPC: 0.42128 (Simulation time: 0 hr 34 min 38 sec) 
Heartbeat CPU 0 instructions: 14000000 cycles: 15244606 heartbeat IPC: 0.420526 cumulative IPC: 0.421092 (Simulation time: 0 hr 37 min 56 sec) 
Heartbeat CPU 0 instructions: 15000000 cycles: 17595618 heartbeat IPC: 0.425349 cumulative IPC: 0.421936 (Simulation time: 0 hr 41 min 13 sec) 
Heartbeat CPU 0 instructions: 16000000 cycles: 19976093 heartbeat IPC: 0.420084 cumulative IPC: 0.421626 (Simulation time: 0 hr 44 min 34 sec) 
Heartbeat CPU 0 instructions: 17000003 cycles: 22368505 heartbeat IPC: 0.417989 cumulative IPC: 0.421103 (Simulation time: 0 hr 47 min 51 sec) 
Heartbeat CPU 0 instructions: 18000000 cycles: 24612402 heartbeat IPC: 0.445652 cumulative IPC: 0.424023 (Simulation time: 0 hr 51 min 3 sec) 
Heartbeat CPU 0 instructions: 19000000 cycles: 27117282 heartbeat IPC: 0.399221 cumulative IPC: 0.421116 (Simulation time: 0 hr 54 min 32 sec) 
Heartbeat CPU 0 instructions: 20000000 cycles: 29620732 heartbeat IPC: 0.399449 cumulative IPC: 0.418844 (Simulation time: 0 hr 57 min 58 sec) 
Heartbeat CPU 0 instructions: 21000001 cycles: 32122235 heartbeat IPC: 0.39976 cumulative IPC: 0.417034 (Simulation time: 1 hr 1 min 25 sec) 
Heartbeat CPU 0 instructions: 22000001 cycles: 34618056 heartbeat IPC: 0.40067 cumulative IPC: 0.415619 (Simulation time: 1 hr 4 min 48 sec) 
Heartbeat CPU 0 instructions: 23000000 cycles: 37109945 heartbeat IPC: 0.401302 cumulative IPC: 0.414482 (Simulation time: 1 hr 7 min 57 sec) 
Heartbeat CPU 0 instructions: 24000000 cycles: 39592832 heartbeat IPC: 0.402757 cumulative IPC: 0.413622 (Simulation time: 1 hr 11 min 21 sec) 
Heartbeat CPU 0 instructions: 25000001 cycles: 42055416 heartbeat IPC: 0.406078 cumulative IPC: 0.41311 (Simulation time: 1 hr 14 min 56 sec) 
Heartbeat CPU 0 instructions: 26000001 cycles: 44327979 heartbeat IPC: 0.440032 cumulative IPC: 0.414696 (Simulation time: 1 hr 18 min 20 sec) 
Heartbeat CPU 0 instructions: 27000003 cycles: 46822809 heartbeat IPC: 0.40083 cumulative IPC: 0.413854 (Simulation time: 1 hr 21 min 51 sec) 
Heartbeat CPU 0 instructions: 28000000 cycles: 49326095 heartbeat IPC: 0.399474 cumulative IPC: 0.413028 (Simulation time: 1 hr 25 min 20 sec) 
Heartbeat CPU 0 instructions: 29000001 cycles: 51827756 heartbeat IPC: 0.399735 cumulative IPC: 0.412306 (Simulation time: 1 hr 28 min 39 sec) 
Heartbeat CPU 0 instructions: 30000001 cycles: 54325160 heartbeat IPC: 0.400416 cumulative IPC: 0.411695 (Simulation time: 1 hr 31 min 59 sec) 
Heartbeat CPU 0 instructions: 31000000 cycles: 56816976 heartbeat IPC: 0.401313 cumulative IPC: 0.411188 (Simulation time: 1 hr 35 min 21 sec) 
Heartbeat CPU 0 instructions: 32000000 cycles: 59302103 heartbeat IPC: 0.402394 cumulative IPC: 0.41078 (Simulation time: 1 hr 38 min 44 sec) 
Heartbeat CPU 0 instructions: 33000001 cycles: 61770175 heartbeat IPC: 0.405175 cumulative IPC: 0.410533 (Simulation time: 1 hr 42 min 7 sec) 
Heartbeat CPU 0 instructions: 34000002 cycles: 64180929 heartbeat IPC: 0.414808 cumulative IPC: 0.41071 (Simulation time: 1 hr 45 min 15 sec) 
Heartbeat CPU 0 instructions: 35000002 cycles: 66644254 heartbeat IPC: 0.405955 cumulative IPC: 0.410517 (Simulation time: 1 hr 48 min 35 sec) 
Heartbeat CPU 0 instructions: 36000000 cycles: 69306155 heartbeat IPC: 0.375671 cumulative IPC: 0.409058 (Simulation time: 1 hr 51 min 35 sec) 
Heartbeat CPU 0 instructions: 37000001 cycles: 72442175 heartbeat IPC: 0.318876 cumulative IPC: 0.404818 (Simulation time: 1 hr 55 min 11 sec) 
Heartbeat CPU 0 instructions: 38000000 cycles: 75339674 heartbeat IPC: 0.345125 cumulative IPC: 0.402332 (Simulation time: 1 hr 58 min 1 sec) 
Heartbeat CPU 0 instructions: 39000000 cycles: 78399433 heartbeat IPC: 0.326823 cumulative IPC: 0.399152 (Simulation time: 2 hr 1 min 9 sec) 
Heartbeat CPU 0 instructions: 40000000 cycles: 81469455 heartbeat IPC: 0.325731 cumulative IPC: 0.396176 (Simulation time: 2 hr 4 min 13 sec) 
Heartbeat CPU 0 instructions: 41000000 cycles: 84516133 heartbeat IPC: 0.328226 cumulative IPC: 0.393548 (Simulation time: 2 hr 7 min 6 sec) 
Heartbeat CPU 0 instructions: 42000002 cycles: 87552360 heartbeat IPC: 0.329357 cumulative IPC: 0.391165 (Simulation time: 2 hr 10 min 7 sec) 
Heartbeat CPU 0 instructions: 43000000 cycles: 90661272 heartbeat IPC: 0.321655 cumulative IPC: 0.38862 (Simulation time: 2 hr 13 min 16 sec) 
Heartbeat CPU 0 instructions: 44000000 cycles: 93696335 heartbeat IPC: 0.329482 cumulative IPC: 0.38658 (Simulation time: 2 hr 16 min 3 sec) 
Heartbeat CPU 0 instructions: 45000001 cycles: 96607777 heartbeat IPC: 0.343473 cumulative IPC: 0.385198 (Simulation time: 2 hr 18 min 56 sec) 
Heartbeat CPU 0 instructions: 46000003 cycles: 99416697 heartbeat IPC: 0.356009 cumulative IPC: 0.384323 (Simulation time: 2 hr 21 min 54 sec) 
Heartbeat CPU 0 instructions: 47000002 cycles: 102442147 heartbeat IPC: 0.330529 cumulative IPC: 0.38264 (Simulation time: 2 hr 24 min 46 sec) 
Heartbeat CPU 0 instructions: 48000000 cycles: 105417732 heartbeat IPC: 0.336068 cumulative IPC: 0.38125 (Simulation time: 2 hr 27 min 46 sec) 
Heartbeat CPU 0 instructions: 49000002 cycles: 108427547 heartbeat IPC: 0.332247 cumulative IPC: 0.379813 (Simulation time: 2 hr 31 min 18 sec) 
Heartbeat CPU 0 instructions: 50000002 cycles: 111441539 heartbeat IPC: 0.331786 cumulative IPC: 0.378444 (Simulation time: 2 hr 34 min 20 sec) 
Heartbeat CPU 0 instructions: 51000003 cycles: 114481615 heartbeat IPC: 0.328939 cumulative IPC: 0.37706 (Simulation time: 2 hr 37 min 17 sec) 
Heartbeat CPU 0 instructions: 52000000 cycles: 117468707 heartbeat IPC: 0.334773 cumulative IPC: 0.375929 (Simulation time: 2 hr 40 min 8 sec) 
Heartbeat CPU 0 instructions: 53000000 cycles: 120432373 heartbeat IPC: 0.33742 cumulative IPC: 0.374934 (Simulation time: 2 hr 43 min 8 sec) 
Heartbeat CPU 0 instructions: 54000000 cycles: 123486731 heartbeat IPC: 0.327401 cumulative IPC: 0.373701 (Simulation time: 2 hr 46 min 6 sec) 
Heartbeat CPU 0 instructions: 55000003 cycles: 126387848 heartbeat IPC: 0.344696 cumulative IPC: 0.373003 (Simulation time: 2 hr 49 min 0 sec) 
Heartbeat CPU 0 instructions: 56000000 cycles: 128889103 heartbeat IPC: 0.399798 cumulative IPC: 0.373548 (Simulation time: 2 hr 52 min 6 sec) 
Heartbeat CPU 0 instructions: 57000002 cycles: 131171355 heartbeat IPC: 0.438165 cumulative IPC: 0.374723 (Simulation time: 2 hr 55 min 4 sec) 
Heartbeat CPU 0 instructions: 58000001 cycles: 132561468 heartbeat IPC: 0.719365 cumulative IPC: 0.378501 (Simulation time: 2 hr 57 min 32 sec) 
Heartbeat CPU 0 instructions: 59000002 cycles: 134870040 heartbeat IPC: 0.433169 cumulative IPC: 0.379479 (Simulation time: 3 hr 0 min 27 sec) 
Heartbeat CPU 0 instructions: 60000000 cycles: 137220652 heartbeat IPC: 0.42542 cumulative IPC: 0.3803 (Simulation time: 3 hr 3 min 42 sec) 
Heartbeat CPU 0 instructions: 61000002 cycles: 139670142 heartbeat IPC: 0.408249 cumulative IPC: 0.380811 (Simulation time: 3 hr 6 min 47 sec) 
Heartbeat CPU 0 instructions: 62000000 cycles: 142036931 heartbeat IPC: 0.422513 cumulative IPC: 0.381535 (Simulation time: 3 hr 10 min 2 sec) 
Heartbeat CPU 0 instructions: 63000000 cycles: 144400280 heartbeat IPC: 0.423128 cumulative IPC: 0.382244 (Simulation time: 3 hr 13 min 21 sec) 
Heartbeat CPU 0 instructions: 64000000 cycles: 146819774 heartbeat IPC: 0.41331 cumulative IPC: 0.382777 (Simulation time: 3 hr 16 min 30 sec) 
Heartbeat CPU 0 instructions: 65000003 cycles: 149146274 heartbeat IPC: 0.429832 cumulative IPC: 0.38354 (Simulation time: 3 hr 19 min 49 sec) 
Heartbeat CPU 0 instructions: 66000002 cycles: 151490048 heartbeat IPC: 0.426662 cumulative IPC: 0.384234 (Simulation time: 3 hr 23 min 3 sec) 
Heartbeat CPU 0 instructions: 67000001 cycles: 153846537 heartbeat IPC: 0.42436 cumulative IPC: 0.384872 (Simulation time: 3 hr 26 min 20 sec) 
Heartbeat CPU 0 instructions: 68000000 cycles: 156294728 heartbeat IPC: 0.408464 cumulative IPC: 0.385256 (Simulation time: 3 hr 29 min 49 sec) 
Heartbeat CPU 0 instructions: 69000001 cycles: 158647707 heartbeat IPC: 0.424994 cumulative IPC: 0.385868 (Simulation time: 3 hr 33 min 10 sec) 
Heartbeat CPU 0 instructions: 70000000 cycles: 161063545 heartbeat IPC: 0.413935 cumulative IPC: 0.386304 (Simulation time: 3 hr 36 min 33 sec) 
Heartbeat CPU 0 instructions: 71000000 cycles: 163450690 heartbeat IPC: 0.41891 cumulative IPC: 0.386798 (Simulation time: 3 hr 39 min 57 sec) 
Heartbeat CPU 0 instructions: 72000000 cycles: 165780967 heartbeat IPC: 0.429134 cumulative IPC: 0.387414 (Simulation time: 3 hr 43 min 24 sec) 
Heartbeat CPU 0 instructions: 73000000 cycles: 168115773 heartbeat IPC: 0.428301 cumulative IPC: 0.388002 (Simulation time: 3 hr 46 min 40 sec) 
Heartbeat CPU 0 instructions: 74000002 cycles: 170501347 heartbeat IPC: 0.419187 cumulative IPC: 0.388454 (Simulation time: 3 hr 49 min 55 sec) 
Heartbeat CPU 0 instructions: 75000000 cycles: 172924796 heartbeat IPC: 0.412634 cumulative IPC: 0.388804 (Simulation time: 3 hr 53 min 16 sec) 
Heartbeat CPU 0 instructions: 76000000 cycles: 175284464 heartbeat IPC: 0.423788 cumulative IPC: 0.389291 (Simulation time: 3 hr 56 min 33 sec) 
Heartbeat CPU 0 instructions: 77000000 cycles: 177718959 heartbeat IPC: 0.410763 cumulative IPC: 0.389595 (Simulation time: 3 hr 59 min 57 sec) 
Heartbeat CPU 0 instructions: 78000002 cycles: 180084966 heartbeat IPC: 0.422654 cumulative IPC: 0.390044 (Simulation time: 4 hr 3 min 14 sec) 
Heartbeat CPU 0 instructions: 79000001 cycles: 182421936 heartbeat IPC: 0.427904 cumulative IPC: 0.390544 (Simulation time: 4 hr 6 min 31 sec) 
Heartbeat CPU 0 instructions: 80000000 cycles: 184754129 heartbeat IPC: 0.428781 cumulative IPC: 0.391043 (Simulation time: 4 hr 9 min 50 sec) 
Heartbeat CPU 0 instructions: 81000000 cycles: 187177813 heartbeat IPC: 0.412595 cumulative IPC: 0.39133 (Simulation time: 4 hr 13 min 22 sec) 
Heartbeat CPU 0 instructions: 82000000 cycles: 189542440 heartbeat IPC: 0.4229 cumulative IPC: 0.391737 (Simulation time: 4 hr 16 min 31 sec) 
Heartbeat CPU 0 instructions: 83000002 cycles: 191863574 heartbeat IPC: 0.430825 cumulative IPC: 0.392224 (Simulation time: 4 hr 19 min 40 sec) 
Heartbeat CPU 0 instructions: 84000000 cycles: 194286126 heartbeat IPC: 0.412787 cumulative IPC: 0.392488 (Simulation time: 4 hr 22 min 37 sec) 
Heartbeat CPU 0 instructions: 85000000 cycles: 196662815 heartbeat IPC: 0.420753 cumulative IPC: 0.39284 (Simulation time: 4 hr 25 min 30 sec) 
Heartbeat CPU 0 instructions: 86000000 cycles: 199012975 heartbeat IPC: 0.425503 cumulative IPC: 0.393237 (Simulation time: 4 hr 28 min 19 sec) 
Heartbeat CPU 0 instructions: 87000001 cycles: 201459294 heartbeat IPC: 0.408778 cumulative IPC: 0.393432 (Simulation time: 4 hr 30 min 52 sec) 
Heartbeat CPU 0 instructions: 88000000 cycles: 203825488 heartbeat IPC: 0.422619 cumulative IPC: 0.39378 (Simulation time: 4 hr 33 min 11 sec) 
Heartbeat CPU 0 instructions: 89000002 cycles: 206151494 heartbeat IPC: 0.429922 cumulative IPC: 0.3942 (Simulation time: 4 hr 35 min 21 sec) 
Heartbeat CPU 0 instructions: 90000002 cycles: 208515501 heartbeat IPC: 0.423011 cumulative IPC: 0.394536 (Simulation time: 4 hr 37 min 23 sec) 
Heartbeat CPU 0 instructions: 91000003 cycles: 210932064 heartbeat IPC: 0.413811 cumulative IPC: 0.394763 (Simulation time: 4 hr 39 min 24 sec) 
Heartbeat CPU 0 instructions: 92000000 cycles: 213292955 heartbeat IPC: 0.423568 cumulative IPC: 0.39509 (Simulation time: 4 hr 41 min 23 sec) 
Heartbeat CPU 0 instructions: 93000001 cycles: 215640175 heartbeat IPC: 0.426036 cumulative IPC: 0.395436 (Simulation time: 4 hr 43 min 23 sec) 
Heartbeat CPU 0 instructions: 94000002 cycles: 218092637 heartbeat IPC: 0.407754 cumulative IPC: 0.395579 (Simulation time: 4 hr 45 min 7 sec) 
Heartbeat CPU 0 instructions: 95000000 cycles: 220454351 heartbeat IPC: 0.42342 cumulative IPC: 0.395885 (Simulation time: 4 hr 46 min 48 sec) 
Heartbeat CPU 0 instructions: 96000000 cycles: 222778382 heartbeat IPC: 0.430287 cumulative IPC: 0.396253 (Simulation time: 4 hr 48 min 13 sec) 
Heartbeat CPU 0 instructions: 97000000 cycles: 225165412 heartbeat IPC: 0.418931 cumulative IPC: 0.3965 (Simulation time: 4 hr 49 min 38 sec) 
Heartbeat CPU 0 instructions: 98000001 cycles: 227565425 heartbeat IPC: 0.416665 cumulative IPC: 0.396718 (Simulation time: 4 hr 51 min 7 sec) 
Heartbeat CPU 0 instructions: 99000002 cycles: 229924720 heartbeat IPC: 0.423856 cumulative IPC: 0.397004 (Simulation time: 4 hr 52 min 23 sec) 
Heartbeat CPU 0 instructions: 100000000 cycles: 232286419 heartbeat IPC: 0.423423 cumulative IPC: 0.397279 (Simulation time: 4 hr 53 min 24 sec) 
Heartbeat CPU 0 instructions: 101000000 cycles: 234702452 heartbeat IPC: 0.413902 cumulative IPC: 0.397455 (Simulation time: 4 hr 54 min 25 sec) 
Heartbeat CPU 0 instructions: 102000000 cycles: 236937867 heartbeat IPC: 0.447344 cumulative IPC: 0.397937 (Simulation time: 4 hr 55 min 19 sec) 
Heartbeat CPU 0 instructions: 103000001 cycles: 239442467 heartbeat IPC: 0.399266 cumulative IPC: 0.397951 (Simulation time: 4 hr 56 min 8 sec) 
Heartbeat CPU 0 instructions: 104000000 cycles: 241944987 heartbeat IPC: 0.399597 cumulative IPC: 0.397969 (Simulation time: 4 hr 56 min 53 sec) 
Heartbeat CPU 0 instructions: 105000000 cycles: 244444860 heartbeat IPC: 0.40002 cumulative IPC: 0.39799 (Simulation time: 4 hr 57 min 35 sec) 
Heartbeat CPU 0 instructions: 106000000 cycles: 246941065 heartbeat IPC: 0.400608 cumulative IPC: 0.398017 (Simulation time: 4 hr 58 min 13 sec) 
Heartbeat CPU 0 instructions: 107000001 cycles: 249431657 heartbeat IPC: 0.401511 cumulative IPC: 0.398053 (Simulation time: 4 hr 58 min 48 sec) 
Heartbeat CPU 0 instructions: 108000000 cycles: 251912063 heartbeat IPC: 0.403159 cumulative IPC: 0.398104 (Simulation time: 4 hr 59 min 19 sec) 
Heartbeat CPU 0 instructions: 109000002 cycles: 254368212 heartbeat IPC: 0.407142 cumulative IPC: 0.398194 (Simulation time: 4 hr 59 min 48 sec) 
Heartbeat CPU 0 instructions: 110000000 cycles: 256689591 heartbeat IPC: 0.430778 cumulative IPC: 0.398495 (Simulation time: 5 hr 0 min 14 sec) 
Finished CPU 0 instructions: 100000000 cycles: 250944128 cummulative IPC: 0.398495 (Simulation time: 5 hr 0 min 14 sec) 

ChampSim completed all CPUs

Region of Interest Statistics

CPU 0 cummulative IPC: 0.398495 instructions: 100000000 cycles: 250944128
LLC TOTAL     ACCESS:     156509  HIT:          0  MISS:     156509
LLC LOAD      ACCESS:      70515  HIT:          0  MISS:      70515
LLC RFO       ACCESS:      11245  HIT:          0  MISS:      11245
LLC PREFETCH  ACCESS:      50032  HIT:          0  MISS:      50032
LLC WRITEBACK ACCESS:      24717  HIT:          0  MISS:      24717
