
*** ChampSim Multicore Out-of-Order Simulator ***

Warmup Instructions: 10000000
Simulation Instructions: 100000000
Configuration: 2
Number of CPUs: 1
LLC sets: 2048
LLC ways: 16
Off-chip DRAM Channels: 1 Width: 64-bit Data Rate: 1600 MT/s

CPU 0 runs /datasets/cs240c-wi22-a00-public/data/Assignment2-gz/GemsFDTD_712B.trace.gz
CPU 0 L1D next line prefetcher
CPU 0 L2C IP-based stride prefetcher
config 2, num_core 1, llc_sets 2048
Heartbeat CPU 0 instructions: 1000003 cycles: 634341 heartbeat IPC: 1.57644 cumulative IPC: 1.57644 (Simulation time: 0 hr 2 min 59 sec) 
Heartbeat CPU 0 instructions: 2000000 cycles: 1268324 heartbeat IPC: 1.57732 cumulative IPC: 1.57688 (Simulation time: 0 hr 5 min 49 sec) 
Heartbeat CPU 0 instructions: 3000000 cycles: 1902428 heartbeat IPC: 1.57703 cumulative IPC: 1.57693 (Simulation time: 0 hr 8 min 48 sec) 
Heartbeat CPU 0 instructions: 4000000 cycles: 2536238 heartbeat IPC: 1.57776 cumulative IPC: 1.57714 (Simulation time: 0 hr 11 min 35 sec) 
Heartbeat CPU 0 instructions: 5000003 cycles: 3170510 heartbeat IPC: 1.57662 cumulative IPC: 1.57703 (Simulation time: 0 hr 14 min 23 sec) 
Heartbeat CPU 0 instructions: 6000002 cycles: 3804518 heartbeat IPC: 1.57727 cumulative IPC: 1.57707 (Simulation time: 0 hr 17 min 18 sec) 
Heartbeat CPU 0 instructions: 7000001 cycles: 4438785 heartbeat IPC: 1.57662 cumulative IPC: 1.57701 (Simulation time: 0 hr 20 min 8 sec) 
Heartbeat CPU 0 instructions: 8000000 cycles: 5072737 heartbeat IPC: 1.5774 cumulative IPC: 1.57706 (Simulation time: 0 hr 23 min 3 sec) 
Heartbeat CPU 0 instructions: 9000001 cycles: 5706994 heartbeat IPC: 1.57665 cumulative IPC: 1.57701 (Simulation time: 0 hr 25 min 54 sec) 
Heartbeat CPU 0 instructions: 10000002 cycles: 6340903 heartbeat IPC: 1.57752 cumulative IPC: 1.57706 (Simulation time: 0 hr 28 min 40 sec) 

Warmup complete CPU 0 instructions: 10000002 cycles: 6340903 (Simulation time: 0 hr 28 min 40 sec) 

Heartbeat CPU 0 instructions: 11000001 cycles: 7982630 heartbeat IPC: 0.609114 cumulative IPC: 0.609114 (Simulation time: 0 hr 31 min 43 sec) 
Heartbeat CPU 0 instructions: 12000000 cycles: 9630685 heartbeat IPC: 0.606775 cumulative IPC: 0.607942 (Simulation time: 0 hr 35 min 25 sec) 
Heartbeat CPU 0 instructions: 13000000 cycles: 11271179 heartbeat IPC: 0.609572 cumulative IPC: 0.608485 (Simulation time: 0 hr 39 min 19 sec) 
Heartbeat CPU 0 instructions: 14000001 cycles: 12900354 heartbeat IPC: 0.613808 cumulative IPC: 0.609807 (Simulation time: 0 hr 43 min 10 sec) 
Heartbeat CPU 0 instructions: 15000000 cycles: 14516705 heartbeat IPC: 0.618677 cumulative IPC: 0.611561 (Simulation time: 0 hr 47 min 6 sec) 
Heartbeat CPU 0 instructions: 16000000 cycles: 16163585 heartbeat IPC: 0.607209 cumulative IPC: 0.610831 (Simulation time: 0 hr 50 min 52 sec) 
Heartbeat CPU 0 instructions: 17000001 cycles: 17797809 heartbeat IPC: 0.611912 cumulative IPC: 0.610985 (Simulation time: 0 hr 54 min 42 sec) 
Heartbeat CPU 0 instructions: 18000002 cycles: 19453884 heartbeat IPC: 0.603838 cumulative IPC: 0.610083 (Simulation time: 0 hr 58 min 33 sec) 
Heartbeat CPU 0 instructions: 19000003 cycles: 21084780 heartbeat IPC: 0.61316 cumulative IPC: 0.610423 (Simulation time: 1 hr 2 min 17 sec) 
Heartbeat CPU 0 instructions: 20000000 cycles: 22711300 heartbeat IPC: 0.614808 cumulative IPC: 0.610859 (Simulation time: 1 hr 6 min 9 sec) 
Heartbeat CPU 0 instructions: 21000002 cycles: 24349904 heartbeat IPC: 0.610277 cumulative IPC: 0.610806 (Simulation time: 1 hr 9 min 37 sec) 
Heartbeat CPU 0 instructions: 22000001 cycles: 25998018 heartbeat IPC: 0.606754 cumulative IPC: 0.610466 (Simulation time: 1 hr 12 min 45 sec) 
Heartbeat CPU 0 instructions: 23000002 cycles: 27629687 heartbeat IPC: 0.61287 cumulative IPC: 0.61065 (Simulation time: 1 hr 15 min 56 sec) 
Heartbeat CPU 0 instructions: 24000000 cycles: 29294996 heartbeat IPC: 0.600488 cumulative IPC: 0.609913 (Simulation time: 1 hr 19 min 26 sec) 
Heartbeat CPU 0 instructions: 25000000 cycles: 30939122 heartbeat IPC: 0.608226 cumulative IPC: 0.6098 (Simulation time: 1 hr 22 min 31 sec) 
Heartbeat CPU 0 instructions: 26000002 cycles: 32573432 heartbeat IPC: 0.61188 cumulative IPC: 0.60993 (Simulation time: 1 hr 25 min 37 sec) 
Heartbeat CPU 0 instructions: 27000002 cycles: 34227668 heartbeat IPC: 0.604509 cumulative IPC: 0.609608 (Simulation time: 1 hr 28 min 39 sec) 
Heartbeat CPU 0 instructions: 28000000 cycles: 35857885 heartbeat IPC: 0.613414 cumulative IPC: 0.609818 (Simulation time: 1 hr 31 min 50 sec) 
Heartbeat CPU 0 instructions: 29000002 cycles: 37492399 heartbeat IPC: 0.611804 cumulative IPC: 0.609923 (Simulation time: 1 hr 35 min 2 sec) 
Heartbeat CPU 0 instructions: 30000003 cycles: 39116665 heartbeat IPC: 0.615663 cumulative IPC: 0.610207 (Simulation time: 1 hr 38 min 22 sec) 
Heartbeat CPU 0 instructions: 31000001 cycles: 40757786 heartbeat IPC: 0.609338 cumulative IPC: 0.610166 (Simulation time: 1 hr 41 min 43 sec) 
Heartbeat CPU 0 instructions: 32000000 cycles: 42402493 heartbeat IPC: 0.60801 cumulative IPC: 0.610067 (Simulation time: 1 hr 44 min 56 sec) 
Heartbeat CPU 0 instructions: 33000000 cycles: 44040908 heartbeat IPC: 0.610346 cumulative IPC: 0.610079 (Simulation time: 1 hr 48 min 2 sec) 
Heartbeat CPU 0 instructions: 34000003 cycles: 45649970 heartbeat IPC: 0.621482 cumulative IPC: 0.610546 (Simulation time: 1 hr 51 min 7 sec) 
Heartbeat CPU 0 instructions: 35000000 cycles: 47283079 heartbeat IPC: 0.612327 cumulative IPC: 0.610617 (Simulation time: 1 hr 54 min 18 sec) 
Heartbeat CPU 0 instructions: 36000000 cycles: 48926949 heartbeat IPC: 0.608321 cumulative IPC: 0.610529 (Simulation time: 1 hr 57 min 20 sec) 
Heartbeat CPU 0 instructions: 37000001 cycles: 50542804 heartbeat IPC: 0.618868 cumulative IPC: 0.610833 (Simulation time: 2 hr 0 min 23 sec) 
Heartbeat CPU 0 instructions: 38000003 cycles: 52164587 heartbeat IPC: 0.616607 cumulative IPC: 0.611038 (Simulation time: 2 hr 3 min 17 sec) 
Heartbeat CPU 0 instructions: 39000000 cycles: 53818110 heartbeat IPC: 0.604768 cumulative IPC: 0.610819 (Simulation time: 2 hr 6 min 33 sec) 
Heartbeat CPU 0 instructions: 40000000 cycles: 55424482 heartbeat IPC: 0.622521 cumulative IPC: 0.611202 (Simulation time: 2 hr 9 min 53 sec) 
Heartbeat CPU 0 instructions: 41000003 cycles: 57053890 heartbeat IPC: 0.613722 cumulative IPC: 0.611283 (Simulation time: 2 hr 13 min 12 sec) 
Heartbeat CPU 0 instructions: 42000000 cycles: 58696842 heartbeat IPC: 0.608659 cumulative IPC: 0.611201 (Simulation time: 2 hr 16 min 9 sec) 
Heartbeat CPU 0 instructions: 43000001 cycles: 60344980 heartbeat IPC: 0.606746 cumulative IPC: 0.611065 (Simulation time: 2 hr 19 min 18 sec) 
Heartbeat CPU 0 instructions: 44000000 cycles: 61972361 heartbeat IPC: 0.614484 cumulative IPC: 0.611165 (Simulation time: 2 hr 22 min 14 sec) 
Heartbeat CPU 0 instructions: 45000002 cycles: 63598006 heartbeat IPC: 0.615142 cumulative IPC: 0.611278 (Simulation time: 2 hr 25 min 7 sec) 
Heartbeat CPU 0 instructions: 46000002 cycles: 65208410 heartbeat IPC: 0.620962 cumulative IPC: 0.611543 (Simulation time: 2 hr 28 min 4 sec) 
Heartbeat CPU 0 instructions: 47000001 cycles: 66849274 heartbeat IPC: 0.609434 cumulative IPC: 0.611486 (Simulation time: 2 hr 30 min 44 sec) 
Heartbeat CPU 0 instructions: 48000000 cycles: 68484923 heartbeat IPC: 0.611377 cumulative IPC: 0.611483 (Simulation time: 2 hr 33 min 36 sec) 
Heartbeat CPU 0 instructions: 49000000 cycles: 70102623 heartbeat IPC: 0.618162 cumulative IPC: 0.611652 (Simulation time: 2 hr 37 min 9 sec) 
Heartbeat CPU 0 instructions: 50000001 cycles: 71742979 heartbeat IPC: 0.609624 cumulative IPC: 0.611601 (Simulation time: 2 hr 40 min 16 sec) 
Heartbeat CPU 0 instructions: 51000002 cycles: 73392226 heartbeat IPC: 0.606338 cumulative IPC: 0.611472 (Simulation time: 2 hr 43 min 27 sec) 
Heartbeat CPU 0 instructions: 52000000 cycles: 75027063 heartbeat IPC: 0.611681 cumulative IPC: 0.611477 (Simulation time: 2 hr 46 min 19 sec) 
Heartbeat CPU 0 instructions: 53000000 cycles: 76693947 heartbeat IPC: 0.599922 cumulative IPC: 0.611203 (Simulation time: 2 hr 49 min 36 sec) 
Heartbeat CPU 0 instructions: 54000000 cycles: 78308473 heartbeat IPC: 0.619377 cumulative IPC: 0.611386 (Simulation time: 2 hr 52 min 55 sec) 
Heartbeat CPU 0 instructions: 55000003 cycles: 79922951 heartbeat IPC: 0.619397 cumulative IPC: 0.611562 (Simulation time: 2 hr 56 min 1 sec) 
Heartbeat CPU 0 instructions: 56000000 cycles: 81565058 heartbeat IPC: 0.608972 cumulative IPC: 0.611506 (Simulation time: 2 hr 59 min 12 sec) 
Heartbeat CPU 0 instructions: 57000000 cycles: 83242520 heartbeat IPC: 0.596139 cumulative IPC: 0.61117 (Simulation time: 3 hr 2 min 24 sec) 
Heartbeat CPU 0 instructions: 58000001 cycles: 84888022 heartbeat IPC: 0.607718 cumulative IPC: 0.611098 (Simulation time: 3 hr 5 min 30 sec) 
Heartbeat CPU 0 instructions: 59000001 cycles: 86530261 heartbeat IPC: 0.608925 cumulative IPC: 0.611054 (Simulation time: 3 hr 8 min 37 sec) 
Heartbeat CPU 0 instructions: 60000000 cycles: 88182969 heartbeat IPC: 0.605067 cumulative IPC: 0.610933 (Simulation time: 3 hr 11 min 43 sec) 
Heartbeat CPU 0 instructions: 61000001 cycles: 89790417 heartbeat IPC: 0.622105 cumulative IPC: 0.611148 (Simulation time: 3 hr 15 min 6 sec) 
Heartbeat CPU 0 instructions: 62000000 cycles: 91405316 heartbeat IPC: 0.619233 cumulative IPC: 0.611301 (Simulation time: 3 hr 18 min 24 sec) 
Heartbeat CPU 0 instructions: 63000001 cycles: 93045434 heartbeat IPC: 0.609713 cumulative IPC: 0.611271 (Simulation time: 3 hr 21 min 39 sec) 
Heartbeat CPU 0 instructions: 64000000 cycles: 94688470 heartbeat IPC: 0.608629 cumulative IPC: 0.611222 (Simulation time: 3 hr 24 min 42 sec) 
Heartbeat CPU 0 instructions: 65000003 cycles: 96341236 heartbeat IPC: 0.605048 cumulative IPC: 0.611109 (Simulation time: 3 hr 27 min 51 sec) 
Heartbeat CPU 0 instructions: 66000000 cycles: 97958835 heartbeat IPC: 0.618198 cumulative IPC: 0.611234 (Simulation time: 3 hr 30 min 56 sec) 
Heartbeat CPU 0 instructions: 67000000 cycles: 99584693 heartbeat IPC: 0.61506 cumulative IPC: 0.611301 (Simulation time: 3 hr 33 min 55 sec) 
Heartbeat CPU 0 instructions: 68000000 cycles: 101213533 heartbeat IPC: 0.613934 cumulative IPC: 0.611346 (Simulation time: 3 hr 37 min 7 sec) 
Heartbeat CPU 0 instructions: 69000001 cycles: 102822706 heartbeat IPC: 0.621438 cumulative IPC: 0.611514 (Simulation time: 3 hr 40 min 10 sec) 
Heartbeat CPU 0 instructions: 70000002 cycles: 104475500 heartbeat IPC: 0.605037 cumulative IPC: 0.611405 (Simulation time: 3 hr 43 min 24 sec) 
Heartbeat CPU 0 instructions: 71000002 cycles: 106145321 heartbeat IPC: 0.598867 cumulative IPC: 0.611195 (Simulation time: 3 hr 46 min 33 sec) 
Heartbeat CPU 0 instructions: 72000000 cycles: 107990206 heartbeat IPC: 0.542038 cumulative IPC: 0.60994 (Simulation time: 3 hr 50 min 1 sec) 
Heartbeat CPU 0 instructions: 73000000 cycles: 109817562 heartbeat IPC: 0.547239 cumulative IPC: 0.608833 (Simulation time: 3 hr 53 min 32 sec) 
Heartbeat CPU 0 instructions: 74000001 cycles: 111668575 heartbeat IPC: 0.540245 cumulative IPC: 0.607628 (Simulation time: 3 hr 57 min 17 sec) 
Heartbeat CPU 0 instructions: 75000003 cycles: 113502602 heartbeat IPC: 0.545249 cumulative IPC: 0.60656 (Simulation time: 4 hr 0 min 48 sec) 
Heartbeat CPU 0 instructions: 76000000 cycles: 115336974 heartbeat IPC: 0.545144 cumulative IPC: 0.605526 (Simulation time: 4 hr 4 min 11 sec) 
Heartbeat CPU 0 instructions: 77000000 cycles: 117189406 heartbeat IPC: 0.539831 cumulative IPC: 0.604429 (Simulation time: 4 hr 7 min 39 sec) 
Heartbeat CPU 0 instructions: 78000001 cycles: 119020088 heartbeat IPC: 0.546245 cumulative IPC: 0.603483 (Simulation time: 4 hr 11 min 0 sec) 
Heartbeat CPU 0 instructions: 79000003 cycles: 120862196 heartbeat IPC: 0.542857 cumulative IPC: 0.602508 (Simulation time: 4 hr 14 min 27 sec) 
Heartbeat CPU 0 instructions: 80000000 cycles: 122707657 heartbeat IPC: 0.541868 cumulative IPC: 0.601546 (Simulation time: 4 hr 17 min 56 sec) 
Heartbeat CPU 0 instructions: 81000000 cycles: 124552981 heartbeat IPC: 0.54191 cumulative IPC: 0.600615 (Simulation time: 4 hr 21 min 6 sec) 
Heartbeat CPU 0 instructions: 82000000 cycles: 126399910 heartbeat IPC: 0.541439 cumulative IPC: 0.599705 (Simulation time: 4 hr 23 min 59 sec) 
Heartbeat CPU 0 instructions: 83000001 cycles: 128236195 heartbeat IPC: 0.544578 cumulative IPC: 0.598875 (Simulation time: 4 hr 26 min 51 sec) 
Heartbeat CPU 0 instructions: 84000000 cycles: 130080221 heartbeat IPC: 0.542291 cumulative IPC: 0.598031 (Simulation time: 4 hr 29 min 27 sec) 
Heartbeat CPU 0 instructions: 85000000 cycles: 131915273 heartbeat IPC: 0.544944 cumulative IPC: 0.597256 (Simulation time: 4 hr 31 min 55 sec) 
Heartbeat CPU 0 instructions: 86000000 cycles: 133752568 heartbeat IPC: 0.544278 cumulative IPC: 0.596492 (Simulation time: 4 hr 34 min 11 sec) 
Heartbeat CPU 0 instructions: 87000001 cycles: 135598084 heartbeat IPC: 0.541854 cumulative IPC: 0.595712 (Simulation time: 4 hr 36 min 21 sec) 
Heartbeat CPU 0 instructions: 88000000 cycles: 137434699 heartbeat IPC: 0.544479 cumulative IPC: 0.594994 (Simulation time: 4 hr 38 min 25 sec) 
Heartbeat CPU 0 instructions: 89000003 cycles: 139277017 heartbeat IPC: 0.542796 cumulative IPC: 0.59427 (Simulation time: 4 hr 40 min 28 sec) 
Heartbeat CPU 0 instructions: 90000000 cycles: 141116359 heartbeat IPC: 0.543671 cumulative IPC: 0.59358 (Simulation time: 4 hr 42 min 23 sec) 
Heartbeat CPU 0 instructions: 91000001 cycles: 142950126 heartbeat IPC: 0.545326 cumulative IPC: 0.592932 (Simulation time: 4 hr 44 min 13 sec) 
Heartbeat CPU 0 instructions: 92000000 cycles: 144789470 heartbeat IPC: 0.543672 cumulative IPC: 0.592278 (Simulation time: 4 hr 45 min 52 sec) 
Heartbeat CPU 0 instructions: 93000003 cycles: 146617113 heartbeat IPC: 0.547154 cumulative IPC: 0.59169 (Simulation time: 4 hr 47 min 31 sec) 
Heartbeat CPU 0 instructions: 94000002 cycles: 148453753 heartbeat IPC: 0.544472 cumulative IPC: 0.59108 (Simulation time: 4 hr 49 min 3 sec) 
Heartbeat CPU 0 instructions: 95000001 cycles: 150297335 heartbeat IPC: 0.542422 cumulative IPC: 0.590456 (Simulation time: 4 hr 50 min 37 sec) 
Heartbeat CPU 0 instructions: 96000000 cycles: 152131371 heartbeat IPC: 0.545245 cumulative IPC: 0.589888 (Simulation time: 4 hr 52 min 1 sec) 
Heartbeat CPU 0 instructions: 97000003 cycles: 153972576 heartbeat IPC: 0.543124 cumulative IPC: 0.589304 (Simulation time: 4 hr 53 min 18 sec) 
Heartbeat CPU 0 instructions: 98000000 cycles: 155803532 heartbeat IPC: 0.546161 cumulative IPC: 0.588776 (Simulation time: 4 hr 54 min 28 sec) 
Heartbeat CPU 0 instructions: 99000001 cycles: 157643912 heartbeat IPC: 0.543367 cumulative IPC: 0.588224 (Simulation time: 4 hr 55 min 26 sec) 
Heartbeat CPU 0 instructions: 100000000 cycles: 159488508 heartbeat IPC: 0.542124 cumulative IPC: 0.587668 (Simulation time: 4 hr 56 min 19 sec) 
Heartbeat CPU 0 instructions: 101000001 cycles: 161321845 heartbeat IPC: 0.545454 cumulative IPC: 0.587169 (Simulation time: 4 hr 57 min 5 sec) 
Heartbeat CPU 0 instructions: 102000002 cycles: 163159759 heartbeat IPC: 0.544096 cumulative IPC: 0.586664 (Simulation time: 4 hr 57 min 49 sec) 
Heartbeat CPU 0 instructions: 103000000 cycles: 164989034 heartbeat IPC: 0.546664 cumulative IPC: 0.586203 (Simulation time: 4 hr 58 min 28 sec) 
Heartbeat CPU 0 instructions: 104000000 cycles: 166832448 heartbeat IPC: 0.542472 cumulative IPC: 0.585701 (Simulation time: 4 hr 59 min 1 sec) 
Heartbeat CPU 0 instructions: 105000000 cycles: 168666138 heartbeat IPC: 0.545348 cumulative IPC: 0.585245 (Simulation time: 4 hr 59 min 31 sec) 
Heartbeat CPU 0 instructions: 106000002 cycles: 170488463 heartbeat IPC: 0.548751 cumulative IPC: 0.58484 (Simulation time: 4 hr 59 min 58 sec) 
Heartbeat CPU 0 instructions: 107000000 cycles: 172335078 heartbeat IPC: 0.54153 cumulative IPC: 0.584358 (Simulation time: 5 hr 0 min 23 sec) 
Heartbeat CPU 0 instructions: 108000000 cycles: 174168990 heartbeat IPC: 0.545282 cumulative IPC: 0.583931 (Simulation time: 5 hr 0 min 47 sec) 
Heartbeat CPU 0 instructions: 109000003 cycles: 176013141 heartbeat IPC: 0.542257 cumulative IPC: 0.583478 (Simulation time: 5 hr 1 min 9 sec) 
Heartbeat CPU 0 instructions: 110000001 cycles: 177851421 heartbeat IPC: 0.543986 cumulative IPC: 0.583055 (Simulation time: 5 hr 1 min 31 sec) 
Finished CPU 0 instructions: 100000003 cycles: 171510519 cummulative IPC: 0.583055 (Simulation time: 5 hr 1 min 31 sec) 

ChampSim completed all CPUs

Region of Interest Statistics

CPU 0 cummulative IPC: 0.583055 instructions: 100000003 cycles: 171510519
LLC TOTAL     ACCESS:    5145112  HIT:          0  MISS:    5145112
LLC LOAD      ACCESS:     521794  HIT:          0  MISS:     521794
LLC RFO       ACCESS:         18  HIT:          0  MISS:         18
LLC PREFETCH  ACCESS:    3245992  HIT:          0  MISS:    3245992
LLC WRITEBACK ACCESS:    1377308  HIT:          0  MISS:    1377308
