
*** ChampSim Multicore Out-of-Order Simulator ***

Warmup Instructions: 10000000
Simulation Instructions: 100000000
Configuration: 2
Number of CPUs: 1
LLC sets: 2048
LLC ways: 16
Off-chip DRAM Channels: 1 Width: 64-bit Data Rate: 1600 MT/s

CPU 0 runs /datasets/cs240c-wi22-a00-public/data/Assignment2-gz/lbm_94B.trace.gz
CPU 0 L1D next line prefetcher
CPU 0 L2C IP-based stride prefetcher
config 2, num_core 1, llc_sets 2048
Heartbeat CPU 0 instructions: 1000000 cycles: 422066 heartbeat IPC: 2.3693 cumulative IPC: 2.3693 (Simulation time: 0 hr 2 min 26 sec) 
Heartbeat CPU 0 instructions: 2000000 cycles: 812397 heartbeat IPC: 2.56193 cumulative IPC: 2.46185 (Simulation time: 0 hr 4 min 42 sec) 
Heartbeat CPU 0 instructions: 3000000 cycles: 1211538 heartbeat IPC: 2.50538 cumulative IPC: 2.47619 (Simulation time: 0 hr 7 min 2 sec) 
Heartbeat CPU 0 instructions: 4000000 cycles: 1631533 heartbeat IPC: 2.38098 cumulative IPC: 2.45168 (Simulation time: 0 hr 9 min 23 sec) 
Heartbeat CPU 0 instructions: 5000001 cycles: 2021784 heartbeat IPC: 2.56246 cumulative IPC: 2.47306 (Simulation time: 0 hr 11 min 36 sec) 
Heartbeat CPU 0 instructions: 6000000 cycles: 2422463 heartbeat IPC: 2.49576 cumulative IPC: 2.47682 (Simulation time: 0 hr 13 min 51 sec) 
Heartbeat CPU 0 instructions: 7000001 cycles: 2840615 heartbeat IPC: 2.39148 cumulative IPC: 2.46426 (Simulation time: 0 hr 16 min 6 sec) 
Heartbeat CPU 0 instructions: 8000000 cycles: 3230855 heartbeat IPC: 2.56252 cumulative IPC: 2.47612 (Simulation time: 0 hr 18 min 10 sec) 
Heartbeat CPU 0 instructions: 9000003 cycles: 3631891 heartbeat IPC: 2.49355 cumulative IPC: 2.47805 (Simulation time: 0 hr 20 min 20 sec) 
Heartbeat CPU 0 instructions: 10000000 cycles: 4048474 heartbeat IPC: 2.40047 cumulative IPC: 2.47007 (Simulation time: 0 hr 22 min 38 sec) 

Warmup complete CPU 0 instructions: 10000004 cycles: 4048475 (Simulation time: 0 hr 22 min 38 sec) 

Heartbeat CPU 0 instructions: 11000003 cycles: 5612883 heartbeat IPC: 0.639221 cumulative IPC: 0.639219 (Simulation time: 0 hr 25 min 14 sec) 
Heartbeat CPU 0 instructions: 12000000 cycles: 7317186 heartbeat IPC: 0.586748 cumulative IPC: 0.611861 (Simulation time: 0 hr 27 min 55 sec) 
Heartbeat CPU 0 instructions: 13000000 cycles: 9191777 heartbeat IPC: 0.53345 cumulative IPC: 0.583282 (Simulation time: 0 hr 30 min 43 sec) 
Heartbeat CPU 0 instructions: 14000000 cycles: 10723148 heartbeat IPC: 0.65301 cumulative IPC: 0.59928 (Simulation time: 0 hr 33 min 22 sec) 
Heartbeat CPU 0 instructions: 15000003 cycles: 12417623 heartbeat IPC: 0.590155 cumulative IPC: 0.597432 (Simulation time: 0 hr 36 min 7 sec) 
Heartbeat CPU 0 instructions: 16000000 cycles: 14293048 heartbeat IPC: 0.533211 cumulative IPC: 0.585676 (Simulation time: 0 hr 38 min 58 sec) 
Heartbeat CPU 0 instructions: 17000001 cycles: 15829557 heartbeat IPC: 0.650827 cumulative IPC: 0.594173 (Simulation time: 0 hr 41 min 49 sec) 
Heartbeat CPU 0 instructions: 18000001 cycles: 17515131 heartbeat IPC: 0.59327 cumulative IPC: 0.59406 (Simulation time: 0 hr 44 min 29 sec) 
Heartbeat CPU 0 instructions: 19000000 cycles: 19373653 heartbeat IPC: 0.538061 cumulative IPC: 0.587269 (Simulation time: 0 hr 47 min 27 sec) 
Heartbeat CPU 0 instructions: 20000000 cycles: 20942884 heartbeat IPC: 0.637255 cumulative IPC: 0.591912 (Simulation time: 0 hr 50 min 17 sec) 
Heartbeat CPU 0 instructions: 21000001 cycles: 22598237 heartbeat IPC: 0.604101 cumulative IPC: 0.592999 (Simulation time: 0 hr 53 min 0 sec) 
Heartbeat CPU 0 instructions: 22000000 cycles: 24485433 heartbeat IPC: 0.529886 cumulative IPC: 0.587171 (Simulation time: 0 hr 55 min 53 sec) 
Heartbeat CPU 0 instructions: 23000000 cycles: 26074794 heartbeat IPC: 0.629184 cumulative IPC: 0.590203 (Simulation time: 0 hr 58 min 37 sec) 
Heartbeat CPU 0 instructions: 24000000 cycles: 27725224 heartbeat IPC: 0.605903 cumulative IPC: 0.591297 (Simulation time: 1 hr 1 min 15 sec) 
Heartbeat CPU 0 instructions: 25000000 cycles: 29568275 heartbeat IPC: 0.542579 cumulative IPC: 0.587779 (Simulation time: 1 hr 4 min 10 sec) 
Heartbeat CPU 0 instructions: 26000000 cycles: 31133635 heartbeat IPC: 0.638831 cumulative IPC: 0.590729 (Simulation time: 1 hr 7 min 7 sec) 
Heartbeat CPU 0 instructions: 27000002 cycles: 32769184 heartbeat IPC: 0.611417 cumulative IPC: 0.591907 (Simulation time: 1 hr 9 min 45 sec) 
Heartbeat CPU 0 instructions: 28000000 cycles: 34635844 heartbeat IPC: 0.535715 cumulative IPC: 0.588478 (Simulation time: 1 hr 12 min 50 sec) 
Heartbeat CPU 0 instructions: 29000000 cycles: 36205812 heartbeat IPC: 0.636956 cumulative IPC: 0.590845 (Simulation time: 1 hr 15 min 33 sec) 
Heartbeat CPU 0 instructions: 30000000 cycles: 37859205 heartbeat IPC: 0.604817 cumulative IPC: 0.591528 (Simulation time: 1 hr 18 min 33 sec) 
Heartbeat CPU 0 instructions: 31000001 cycles: 39687240 heartbeat IPC: 0.547036 cumulative IPC: 0.589246 (Simulation time: 1 hr 21 min 32 sec) 
Heartbeat CPU 0 instructions: 32000000 cycles: 41238960 heartbeat IPC: 0.644446 cumulative IPC: 0.591549 (Simulation time: 1 hr 24 min 11 sec) 
Heartbeat CPU 0 instructions: 33000000 cycles: 42849055 heartbeat IPC: 0.621081 cumulative IPC: 0.592775 (Simulation time: 1 hr 26 min 49 sec) 
Heartbeat CPU 0 instructions: 34000003 cycles: 44639155 heartbeat IPC: 0.55863 cumulative IPC: 0.591269 (Simulation time: 1 hr 29 min 31 sec) 
Heartbeat CPU 0 instructions: 35000003 cycles: 46201351 heartbeat IPC: 0.640125 cumulative IPC: 0.593079 (Simulation time: 1 hr 32 min 21 sec) 
Heartbeat CPU 0 instructions: 36000000 cycles: 47806083 heartbeat IPC: 0.623155 cumulative IPC: 0.594182 (Simulation time: 1 hr 34 min 55 sec) 
Heartbeat CPU 0 instructions: 37000003 cycles: 49517232 heartbeat IPC: 0.584404 cumulative IPC: 0.593814 (Simulation time: 1 hr 37 min 43 sec) 
Heartbeat CPU 0 instructions: 38000001 cycles: 51111101 heartbeat IPC: 0.627403 cumulative IPC: 0.594952 (Simulation time: 1 hr 40 min 22 sec) 
Heartbeat CPU 0 instructions: 39000002 cycles: 52670463 heartbeat IPC: 0.641289 cumulative IPC: 0.596438 (Simulation time: 1 hr 43 min 4 sec) 
Heartbeat CPU 0 instructions: 40000000 cycles: 54364015 heartbeat IPC: 0.590474 cumulative IPC: 0.596237 (Simulation time: 1 hr 45 min 44 sec) 
Heartbeat CPU 0 instructions: 41000003 cycles: 56031955 heartbeat IPC: 0.599544 cumulative IPC: 0.596343 (Simulation time: 1 hr 48 min 37 sec) 
Heartbeat CPU 0 instructions: 42000000 cycles: 57586471 heartbeat IPC: 0.643285 cumulative IPC: 0.597706 (Simulation time: 1 hr 51 min 10 sec) 
Heartbeat CPU 0 instructions: 43000001 cycles: 59208309 heartbeat IPC: 0.616585 cumulative IPC: 0.598261 (Simulation time: 1 hr 53 min 46 sec) 
Heartbeat CPU 0 instructions: 44000000 cycles: 60905518 heartbeat IPC: 0.589202 cumulative IPC: 0.597991 (Simulation time: 1 hr 56 min 26 sec) 
Heartbeat CPU 0 instructions: 45000002 cycles: 62460974 heartbeat IPC: 0.6429 cumulative IPC: 0.599187 (Simulation time: 1 hr 58 min 55 sec) 
Heartbeat CPU 0 instructions: 46000003 cycles: 64071149 heartbeat IPC: 0.621051 cumulative IPC: 0.599773 (Simulation time: 2 hr 1 min 39 sec) 
Heartbeat CPU 0 instructions: 47000001 cycles: 65708310 heartbeat IPC: 0.610812 cumulative IPC: 0.600066 (Simulation time: 2 hr 4 min 20 sec) 
Heartbeat CPU 0 instructions: 48000000 cycles: 67264780 heartbeat IPC: 0.642479 cumulative IPC: 0.601111 (Simulation time: 2 hr 6 min 52 sec) 
Heartbeat CPU 0 instructions: 49000000 cycles: 68861556 heartbeat IPC: 0.626262 cumulative IPC: 0.60173 (Simulation time: 2 hr 9 min 29 sec) 
Heartbeat CPU 0 instructions: 50000003 cycles: 70489315 heartbeat IPC: 0.614343 cumulative IPC: 0.602039 (Simulation time: 2 hr 12 min 19 sec) 
Heartbeat CPU 0 instructions: 51000003 cycles: 72037547 heartbeat IPC: 0.645898 cumulative IPC: 0.603038 (Simulation time: 2 hr 14 min 44 sec) 
Heartbeat CPU 0 instructions: 52000000 cycles: 73621377 heartbeat IPC: 0.631379 cumulative IPC: 0.603683 (Simulation time: 2 hr 17 min 25 sec) 
Heartbeat CPU 0 instructions: 53000001 cycles: 75248089 heartbeat IPC: 0.614738 cumulative IPC: 0.603936 (Simulation time: 2 hr 20 min 11 sec) 
Heartbeat CPU 0 instructions: 54000000 cycles: 76825625 heartbeat IPC: 0.633899 cumulative IPC: 0.604585 (Simulation time: 2 hr 22 min 59 sec) 
Heartbeat CPU 0 instructions: 55000003 cycles: 78375643 heartbeat IPC: 0.645156 cumulative IPC: 0.605431 (Simulation time: 2 hr 25 min 43 sec) 
Heartbeat CPU 0 instructions: 56000000 cycles: 80004829 heartbeat IPC: 0.613802 cumulative IPC: 0.605611 (Simulation time: 2 hr 28 min 22 sec) 
Heartbeat CPU 0 instructions: 57000003 cycles: 81560289 heartbeat IPC: 0.642899 cumulative IPC: 0.606359 (Simulation time: 2 hr 30 min 48 sec) 
Heartbeat CPU 0 instructions: 58000003 cycles: 83120958 heartbeat IPC: 0.640751 cumulative IPC: 0.607038 (Simulation time: 2 hr 33 min 44 sec) 
Heartbeat CPU 0 instructions: 59000002 cycles: 84736616 heartbeat IPC: 0.618942 cumulative IPC: 0.607276 (Simulation time: 2 hr 36 min 42 sec) 
Heartbeat CPU 0 instructions: 60000000 cycles: 86295829 heartbeat IPC: 0.641348 cumulative IPC: 0.607922 (Simulation time: 2 hr 39 min 15 sec) 
Heartbeat CPU 0 instructions: 61000000 cycles: 87858395 heartbeat IPC: 0.639973 cumulative IPC: 0.60852 (Simulation time: 2 hr 41 min 49 sec) 
Heartbeat CPU 0 instructions: 62000003 cycles: 89411402 heartbeat IPC: 0.643914 cumulative IPC: 0.609164 (Simulation time: 2 hr 44 min 18 sec) 
Heartbeat CPU 0 instructions: 63000003 cycles: 91043523 heartbeat IPC: 0.6127 cumulative IPC: 0.60923 (Simulation time: 2 hr 47 min 4 sec) 
Heartbeat CPU 0 instructions: 64000000 cycles: 92581011 heartbeat IPC: 0.65041 cumulative IPC: 0.609945 (Simulation time: 2 hr 49 min 56 sec) 
Heartbeat CPU 0 instructions: 65000003 cycles: 94143394 heartbeat IPC: 0.64005 cumulative IPC: 0.610467 (Simulation time: 2 hr 52 min 38 sec) 
Heartbeat CPU 0 instructions: 66000002 cycles: 95755838 heartbeat IPC: 0.620176 cumulative IPC: 0.610638 (Simulation time: 2 hr 55 min 29 sec) 
Heartbeat CPU 0 instructions: 67000002 cycles: 97320606 heartbeat IPC: 0.639072 cumulative IPC: 0.611115 (Simulation time: 2 hr 58 min 22 sec) 
Heartbeat CPU 0 instructions: 68000000 cycles: 98864346 heartbeat IPC: 0.647776 cumulative IPC: 0.611712 (Simulation time: 3 hr 1 min 11 sec) 
Heartbeat CPU 0 instructions: 69000000 cycles: 100429553 heartbeat IPC: 0.638893 cumulative IPC: 0.612153 (Simulation time: 3 hr 4 min 5 sec) 
Heartbeat CPU 0 instructions: 70000001 cycles: 102067968 heartbeat IPC: 0.610347 cumulative IPC: 0.612123 (Simulation time: 3 hr 7 min 7 sec) 
Heartbeat CPU 0 instructions: 71000001 cycles: 103612450 heartbeat IPC: 0.647466 cumulative IPC: 0.612671 (Simulation time: 3 hr 10 min 5 sec) 
Heartbeat CPU 0 instructions: 72000000 cycles: 105170645 heartbeat IPC: 0.641768 cumulative IPC: 0.61312 (Simulation time: 3 hr 12 min 54 sec) 
Heartbeat CPU 0 instructions: 73000001 cycles: 106804406 heartbeat IPC: 0.612085 cumulative IPC: 0.613103 (Simulation time: 3 hr 15 min 46 sec) 
Heartbeat CPU 0 instructions: 74000001 cycles: 108404572 heartbeat IPC: 0.624935 cumulative IPC: 0.613285 (Simulation time: 3 hr 18 min 23 sec) 
Heartbeat CPU 0 instructions: 75000000 cycles: 109956701 heartbeat IPC: 0.644276 cumulative IPC: 0.613739 (Simulation time: 3 hr 21 min 17 sec) 
Heartbeat CPU 0 instructions: 76000000 cycles: 111563549 heartbeat IPC: 0.622336 cumulative IPC: 0.613867 (Simulation time: 3 hr 24 min 11 sec) 
Heartbeat CPU 0 instructions: 77000002 cycles: 113134631 heartbeat IPC: 0.636505 cumulative IPC: 0.614193 (Simulation time: 3 hr 26 min 56 sec) 
Heartbeat CPU 0 instructions: 78000003 cycles: 114714899 heartbeat IPC: 0.632805 cumulative IPC: 0.614459 (Simulation time: 3 hr 29 min 45 sec) 
Heartbeat CPU 0 instructions: 79000000 cycles: 116285296 heartbeat IPC: 0.63678 cumulative IPC: 0.614771 (Simulation time: 3 hr 32 min 28 sec) 
Heartbeat CPU 0 instructions: 80000000 cycles: 117904577 heartbeat IPC: 0.617558 cumulative IPC: 0.614811 (Simulation time: 3 hr 35 min 19 sec) 
Heartbeat CPU 0 instructions: 81000000 cycles: 119471585 heartbeat IPC: 0.638159 cumulative IPC: 0.615128 (Simulation time: 3 hr 37 min 57 sec) 
Heartbeat CPU 0 instructions: 82000000 cycles: 121036879 heartbeat IPC: 0.638858 cumulative IPC: 0.615446 (Simulation time: 3 hr 40 min 50 sec) 
Heartbeat CPU 0 instructions: 83000003 cycles: 122652064 heartbeat IPC: 0.619126 cumulative IPC: 0.615496 (Simulation time: 3 hr 43 min 38 sec) 
Heartbeat CPU 0 instructions: 84000000 cycles: 124196401 heartbeat IPC: 0.647525 cumulative IPC: 0.615907 (Simulation time: 3 hr 46 min 28 sec) 
Heartbeat CPU 0 instructions: 85000001 cycles: 125753902 heartbeat IPC: 0.642055 cumulative IPC: 0.616242 (Simulation time: 3 hr 49 min 28 sec) 
Heartbeat CPU 0 instructions: 86000003 cycles: 127370912 heartbeat IPC: 0.618427 cumulative IPC: 0.616271 (Simulation time: 3 hr 52 min 17 sec) 
Heartbeat CPU 0 instructions: 87000000 cycles: 128932088 heartbeat IPC: 0.640541 cumulative IPC: 0.616574 (Simulation time: 3 hr 55 min 13 sec) 
Heartbeat CPU 0 instructions: 88000000 cycles: 130487522 heartbeat IPC: 0.642907 cumulative IPC: 0.616898 (Simulation time: 3 hr 58 min 0 sec) 
Heartbeat CPU 0 instructions: 89000003 cycles: 132022968 heartbeat IPC: 0.651278 cumulative IPC: 0.617311 (Simulation time: 4 hr 0 min 22 sec) 
Heartbeat CPU 0 instructions: 90000003 cycles: 133637537 heartbeat IPC: 0.61936 cumulative IPC: 0.617336 (Simulation time: 4 hr 3 min 13 sec) 
Heartbeat CPU 0 instructions: 91000002 cycles: 135189210 heartbeat IPC: 0.644465 cumulative IPC: 0.617657 (Simulation time: 4 hr 5 min 55 sec) 
Heartbeat CPU 0 instructions: 92000000 cycles: 136745272 heartbeat IPC: 0.642647 cumulative IPC: 0.61795 (Simulation time: 4 hr 8 min 35 sec) 
Heartbeat CPU 0 instructions: 93000003 cycles: 138364586 heartbeat IPC: 0.617547 cumulative IPC: 0.617945 (Simulation time: 4 hr 11 min 5 sec) 
Heartbeat CPU 0 instructions: 94000001 cycles: 139905446 heartbeat IPC: 0.648987 cumulative IPC: 0.618297 (Simulation time: 4 hr 13 min 45 sec) 
Heartbeat CPU 0 instructions: 95000003 cycles: 141462474 heartbeat IPC: 0.64225 cumulative IPC: 0.618569 (Simulation time: 4 hr 16 min 17 sec) 
Heartbeat CPU 0 instructions: 96000000 cycles: 143023512 heartbeat IPC: 0.640597 cumulative IPC: 0.618816 (Simulation time: 4 hr 18 min 46 sec) 
Heartbeat CPU 0 instructions: 97000000 cycles: 144659206 heartbeat IPC: 0.611361 cumulative IPC: 0.618729 (Simulation time: 4 hr 21 min 4 sec) 
Heartbeat CPU 0 instructions: 98000002 cycles: 146185402 heartbeat IPC: 0.655225 cumulative IPC: 0.619121 (Simulation time: 4 hr 23 min 11 sec) 
Heartbeat CPU 0 instructions: 99000001 cycles: 147747666 heartbeat IPC: 0.640096 cumulative IPC: 0.619349 (Simulation time: 4 hr 25 min 17 sec) 
Heartbeat CPU 0 instructions: 100000000 cycles: 149353428 heartbeat IPC: 0.622757 cumulative IPC: 0.619387 (Simulation time: 4 hr 27 min 25 sec) 
Heartbeat CPU 0 instructions: 101000003 cycles: 150908769 heartbeat IPC: 0.642948 cumulative IPC: 0.619636 (Simulation time: 4 hr 29 min 22 sec) 
Heartbeat CPU 0 instructions: 102000002 cycles: 152481809 heartbeat IPC: 0.635711 cumulative IPC: 0.619807 (Simulation time: 4 hr 31 min 15 sec) 
Heartbeat CPU 0 instructions: 103000000 cycles: 154091189 heartbeat IPC: 0.621356 cumulative IPC: 0.619823 (Simulation time: 4 hr 32 min 57 sec) 
Heartbeat CPU 0 instructions: 104000000 cycles: 155661458 heartbeat IPC: 0.636834 cumulative IPC: 0.62 (Simulation time: 4 hr 34 min 32 sec) 
Heartbeat CPU 0 instructions: 105000002 cycles: 157208906 heartbeat IPC: 0.646227 cumulative IPC: 0.620265 (Simulation time: 4 hr 36 min 8 sec) 
Heartbeat CPU 0 instructions: 106000001 cycles: 158750416 heartbeat IPC: 0.648714 cumulative IPC: 0.620548 (Simulation time: 4 hr 37 min 40 sec) 
Heartbeat CPU 0 instructions: 107000000 cycles: 160373120 heartbeat IPC: 0.616255 cumulative IPC: 0.620504 (Simulation time: 4 hr 39 min 10 sec) 
Heartbeat CPU 0 instructions: 108000000 cycles: 161934420 heartbeat IPC: 0.640492 cumulative IPC: 0.620701 (Simulation time: 4 hr 40 min 45 sec) 
Heartbeat CPU 0 instructions: 109000002 cycles: 163497455 heartbeat IPC: 0.639782 cumulative IPC: 0.620888 (Simulation time: 4 hr 42 min 13 sec) 
Heartbeat CPU 0 instructions: 110000000 cycles: 165104113 heartbeat IPC: 0.622409 cumulative IPC: 0.620903 (Simulation time: 4 hr 43 min 41 sec) 
Finished CPU 0 instructions: 100000000 cycles: 161055639 cummulative IPC: 0.620903 (Simulation time: 4 hr 43 min 41 sec) 

ChampSim completed all CPUs

Region of Interest Statistics

CPU 0 cummulative IPC: 0.620903 instructions: 100000000 cycles: 161055639
LLC TOTAL     ACCESS:    5505788  HIT:          0  MISS:    5505788
LLC LOAD      ACCESS:     398376  HIT:          0  MISS:     398376
LLC RFO       ACCESS:    2345786  HIT:          0  MISS:    2345786
LLC PREFETCH  ACCESS:     415505  HIT:          0  MISS:     415505
LLC WRITEBACK ACCESS:    2346121  HIT:          0  MISS:    2346121
