
*** ChampSim Multicore Out-of-Order Simulator ***

Warmup Instructions: 10000000
Simulation Instructions: 100000000
Configuration: 2
Number of CPUs: 1
LLC sets: 2048
LLC ways: 16
Off-chip DRAM Channels: 1 Width: 64-bit Data Rate: 1600 MT/s

CPU 0 runs /datasets/cs240c-wi22-a00-public/data/Assignment2-gz/mcf_250B.trace.gz
CPU 0 L1D next line prefetcher
CPU 0 L2C IP-based stride prefetcher
config 2, num_core 1, llc_sets 2048
Heartbeat CPU 0 instructions: 1000000 cycles: 537095 heartbeat IPC: 1.86187 cumulative IPC: 1.86187 (Simulation time: 0 hr 3 min 17 sec) 
Heartbeat CPU 0 instructions: 2000003 cycles: 1054608 heartbeat IPC: 1.93232 cumulative IPC: 1.89644 (Simulation time: 0 hr 6 min 23 sec) 
Heartbeat CPU 0 instructions: 3000002 cycles: 1555605 heartbeat IPC: 1.99602 cumulative IPC: 1.92851 (Simulation time: 0 hr 9 min 34 sec) 
Heartbeat CPU 0 instructions: 4000000 cycles: 2071623 heartbeat IPC: 1.93791 cumulative IPC: 1.93085 (Simulation time: 0 hr 12 min 57 sec) 
Heartbeat CPU 0 instructions: 5000002 cycles: 2581976 heartbeat IPC: 1.95943 cumulative IPC: 1.9365 (Simulation time: 0 hr 16 min 5 sec) 
Heartbeat CPU 0 instructions: 6000002 cycles: 3091846 heartbeat IPC: 1.96128 cumulative IPC: 1.94059 (Simulation time: 0 hr 19 min 15 sec) 
Heartbeat CPU 0 instructions: 7000002 cycles: 3639882 heartbeat IPC: 1.8247 cumulative IPC: 1.92314 (Simulation time: 0 hr 22 min 24 sec) 
Heartbeat CPU 0 instructions: 8000000 cycles: 4159333 heartbeat IPC: 1.92511 cumulative IPC: 1.92339 (Simulation time: 0 hr 25 min 45 sec) 
Heartbeat CPU 0 instructions: 9000002 cycles: 4678513 heartbeat IPC: 1.92612 cumulative IPC: 1.92369 (Simulation time: 0 hr 29 min 4 sec) 
Heartbeat CPU 0 instructions: 10000000 cycles: 5194316 heartbeat IPC: 1.93872 cumulative IPC: 1.92518 (Simulation time: 0 hr 32 min 17 sec) 

Warmup complete CPU 0 instructions: 10000003 cycles: 5194317 (Simulation time: 0 hr 32 min 17 sec) 

Heartbeat CPU 0 instructions: 11000001 cycles: 22691642 heartbeat IPC: 0.0571516 cumulative IPC: 0.0571515 (Simulation time: 0 hr 38 min 10 sec) 
Heartbeat CPU 0 instructions: 12000000 cycles: 39489636 heartbeat IPC: 0.0595309 cumulative IPC: 0.0583169 (Simulation time: 0 hr 44 min 0 sec) 
Heartbeat CPU 0 instructions: 13000001 cycles: 56858120 heartbeat IPC: 0.0575756 cumulative IPC: 0.0580677 (Simulation time: 0 hr 49 min 39 sec) 
Heartbeat CPU 0 instructions: 14000003 cycles: 74214904 heartbeat IPC: 0.0576145 cumulative IPC: 0.0579537 (Simulation time: 0 hr 55 min 17 sec) 
Heartbeat CPU 0 instructions: 15000002 cycles: 91717325 heartbeat IPC: 0.0571349 cumulative IPC: 0.0577881 (Simulation time: 1 hr 1 min 23 sec) 
Heartbeat CPU 0 instructions: 16000000 cycles: 108199107 heartbeat IPC: 0.0606729 cumulative IPC: 0.0582497 (Simulation time: 1 hr 7 min 10 sec) 
Heartbeat CPU 0 instructions: 17000000 cycles: 125287272 heartbeat IPC: 0.05852 cumulative IPC: 0.0582882 (Simulation time: 1 hr 13 min 10 sec) 
Heartbeat CPU 0 instructions: 18000002 cycles: 141475511 heartbeat IPC: 0.0617734 cumulative IPC: 0.0587021 (Simulation time: 1 hr 18 min 53 sec) 
Heartbeat CPU 0 instructions: 19000000 cycles: 158154722 heartbeat IPC: 0.0599548 cumulative IPC: 0.0588387 (Simulation time: 1 hr 24 min 39 sec) 
Heartbeat CPU 0 instructions: 20000000 cycles: 174863284 heartbeat IPC: 0.0598496 cumulative IPC: 0.0589383 (Simulation time: 1 hr 30 min 13 sec) 
Heartbeat CPU 0 instructions: 21000000 cycles: 191029079 heartbeat IPC: 0.061859 cumulative IPC: 0.0591924 (Simulation time: 1 hr 35 min 48 sec) 
Heartbeat CPU 0 instructions: 22000000 cycles: 206850026 heartbeat IPC: 0.0632073 cumulative IPC: 0.0595074 (Simulation time: 1 hr 41 min 9 sec) 
Heartbeat CPU 0 instructions: 23000003 cycles: 223663110 heartbeat IPC: 0.0594777 cumulative IPC: 0.0595051 (Simulation time: 1 hr 46 min 43 sec) 
Heartbeat CPU 0 instructions: 24000000 cycles: 240249932 heartbeat IPC: 0.0602886 cumulative IPC: 0.0595604 (Simulation time: 1 hr 52 min 24 sec) 
Heartbeat CPU 0 instructions: 25000002 cycles: 257447864 heartbeat IPC: 0.0581466 cumulative IPC: 0.059464 (Simulation time: 1 hr 58 min 1 sec) 
Heartbeat CPU 0 instructions: 26000000 cycles: 274869275 heartbeat IPC: 0.0574005 cumulative IPC: 0.0593307 (Simulation time: 2 hr 3 min 53 sec) 
Heartbeat CPU 0 instructions: 27000003 cycles: 292355505 heartbeat IPC: 0.057188 cumulative IPC: 0.0592002 (Simulation time: 2 hr 9 min 15 sec) 
Heartbeat CPU 0 instructions: 28000000 cycles: 310090875 heartbeat IPC: 0.0563843 cumulative IPC: 0.0590364 (Simulation time: 2 hr 15 min 3 sec) 
Heartbeat CPU 0 instructions: 29000000 cycles: 328089908 heartbeat IPC: 0.0555585 cumulative IPC: 0.0588425 (Simulation time: 2 hr 20 min 33 sec) 
Heartbeat CPU 0 instructions: 30000001 cycles: 345591115 heartbeat IPC: 0.057139 cumulative IPC: 0.058755 (Simulation time: 2 hr 25 min 52 sec) 
Heartbeat CPU 0 instructions: 31000000 cycles: 362945798 heartbeat IPC: 0.0576213 cumulative IPC: 0.0587 (Simulation time: 2 hr 31 min 19 sec) 
Heartbeat CPU 0 instructions: 32000000 cycles: 379700305 heartbeat IPC: 0.0596854 cumulative IPC: 0.058744 (Simulation time: 2 hr 37 min 16 sec) 
Heartbeat CPU 0 instructions: 33000000 cycles: 397161114 heartbeat IPC: 0.0572711 cumulative IPC: 0.0586784 (Simulation time: 2 hr 43 min 13 sec) 
Heartbeat CPU 0 instructions: 34000000 cycles: 414527286 heartbeat IPC: 0.0575832 cumulative IPC: 0.058632 (Simulation time: 2 hr 49 min 6 sec) 
Heartbeat CPU 0 instructions: 35000000 cycles: 431528316 heartbeat IPC: 0.05882 cumulative IPC: 0.0586395 (Simulation time: 2 hr 54 min 57 sec) 
Heartbeat CPU 0 instructions: 36000000 cycles: 448292299 heartbeat IPC: 0.0596517 cumulative IPC: 0.0586778 (Simulation time: 3 hr 0 min 51 sec) 
Heartbeat CPU 0 instructions: 37000002 cycles: 465528188 heartbeat IPC: 0.0580186 cumulative IPC: 0.0586531 (Simulation time: 3 hr 6 min 50 sec) 
Heartbeat CPU 0 instructions: 38000000 cycles: 482886164 heartbeat IPC: 0.0576103 cumulative IPC: 0.0586152 (Simulation time: 3 hr 12 min 57 sec) 
Heartbeat CPU 0 instructions: 39000000 cycles: 500119946 heartbeat IPC: 0.0580256 cumulative IPC: 0.0585947 (Simulation time: 3 hr 18 min 46 sec) 
Heartbeat CPU 0 instructions: 40000000 cycles: 517365837 heartbeat IPC: 0.0579848 cumulative IPC: 0.0585741 (Simulation time: 3 hr 24 min 52 sec) 
Heartbeat CPU 0 instructions: 41000000 cycles: 534677266 heartbeat IPC: 0.0577653 cumulative IPC: 0.0585477 (Simulation time: 3 hr 30 min 50 sec) 
Heartbeat CPU 0 instructions: 42000000 cycles: 551962184 heartbeat IPC: 0.0578539 cumulative IPC: 0.0585257 (Simulation time: 3 hr 36 min 58 sec) 
Heartbeat CPU 0 instructions: 43000000 cycles: 569093693 heartbeat IPC: 0.058372 cumulative IPC: 0.0585211 (Simulation time: 3 hr 42 min 54 sec) 
Heartbeat CPU 0 instructions: 44000000 cycles: 586455549 heartbeat IPC: 0.0575975 cumulative IPC: 0.0584935 (Simulation time: 3 hr 48 min 49 sec) 
Heartbeat CPU 0 instructions: 45000001 cycles: 603748176 heartbeat IPC: 0.0578282 cumulative IPC: 0.0584743 (Simulation time: 3 hr 54 min 21 sec) 
Heartbeat CPU 0 instructions: 46000000 cycles: 621213521 heartbeat IPC: 0.0572562 cumulative IPC: 0.0584397 (Simulation time: 4 hr 0 min 12 sec) 
Heartbeat CPU 0 instructions: 47000002 cycles: 638493829 heartbeat IPC: 0.0578695 cumulative IPC: 0.0584242 (Simulation time: 4 hr 6 min 12 sec) 
Heartbeat CPU 0 instructions: 48000000 cycles: 655312368 heartbeat IPC: 0.0594581 cumulative IPC: 0.0584509 (Simulation time: 4 hr 11 min 55 sec) 
Heartbeat CPU 0 instructions: 49000000 cycles: 672852197 heartbeat IPC: 0.0570131 cumulative IPC: 0.0584131 (Simulation time: 4 hr 17 min 33 sec) 
Heartbeat CPU 0 instructions: 50000002 cycles: 690312222 heartbeat IPC: 0.0572738 cumulative IPC: 0.0583841 (Simulation time: 4 hr 22 min 45 sec) 
Heartbeat CPU 0 instructions: 51000002 cycles: 707684355 heartbeat IPC: 0.0575635 cumulative IPC: 0.0583638 (Simulation time: 4 hr 27 min 35 sec) 
Heartbeat CPU 0 instructions: 52000000 cycles: 725045832 heartbeat IPC: 0.0575987 cumulative IPC: 0.0583454 (Simulation time: 4 hr 32 min 0 sec) 
Heartbeat CPU 0 instructions: 53000000 cycles: 742436608 heartbeat IPC: 0.0575017 cumulative IPC: 0.0583255 (Simulation time: 4 hr 35 min 55 sec) 
Heartbeat CPU 0 instructions: 54000000 cycles: 759643586 heartbeat IPC: 0.058116 cumulative IPC: 0.0583207 (Simulation time: 4 hr 39 min 27 sec) 
Heartbeat CPU 0 instructions: 55000000 cycles: 776945954 heartbeat IPC: 0.0577956 cumulative IPC: 0.0583089 (Simulation time: 4 hr 42 min 59 sec) 
Heartbeat CPU 0 instructions: 56000000 cycles: 794242629 heartbeat IPC: 0.0578146 cumulative IPC: 0.0582981 (Simulation time: 4 hr 46 min 3 sec) 
Heartbeat CPU 0 instructions: 57000000 cycles: 811716439 heartbeat IPC: 0.0572285 cumulative IPC: 0.0582749 (Simulation time: 4 hr 48 min 56 sec) 
Heartbeat CPU 0 instructions: 58000000 cycles: 828954209 heartbeat IPC: 0.0580121 cumulative IPC: 0.0582694 (Simulation time: 4 hr 51 min 17 sec) 
Heartbeat CPU 0 instructions: 59000001 cycles: 846330093 heartbeat IPC: 0.0575511 cumulative IPC: 0.0582546 (Simulation time: 4 hr 53 min 24 sec) 
Heartbeat CPU 0 instructions: 60000000 cycles: 863492766 heartbeat IPC: 0.0582659 cumulative IPC: 0.0582548 (Simulation time: 4 hr 55 min 4 sec) 
Heartbeat CPU 0 instructions: 61000002 cycles: 880686651 heartbeat IPC: 0.0581603 cumulative IPC: 0.0582529 (Simulation time: 4 hr 56 min 27 sec) 
Heartbeat CPU 0 instructions: 62000000 cycles: 895133567 heartbeat IPC: 0.0692188 cumulative IPC: 0.058431 (Simulation time: 4 hr 57 min 31 sec) 
Heartbeat CPU 0 instructions: 63000001 cycles: 911590242 heartbeat IPC: 0.0607657 cumulative IPC: 0.0584733 (Simulation time: 4 hr 58 min 32 sec) 
Heartbeat CPU 0 instructions: 64000000 cycles: 928438652 heartbeat IPC: 0.0593527 cumulative IPC: 0.0584894 (Simulation time: 4 hr 59 min 24 sec) 
Heartbeat CPU 0 instructions: 65000000 cycles: 944414084 heartbeat IPC: 0.0625961 cumulative IPC: 0.0585592 (Simulation time: 5 hr 0 min 9 sec) 
Heartbeat CPU 0 instructions: 66000000 cycles: 961179854 heartbeat IPC: 0.0596453 cumulative IPC: 0.0585783 (Simulation time: 5 hr 0 min 49 sec) 
Heartbeat CPU 0 instructions: 67000000 cycles: 978331120 heartbeat IPC: 0.0583047 cumulative IPC: 0.0585735 (Simulation time: 5 hr 1 min 26 sec) 
Heartbeat CPU 0 instructions: 68000000 cycles: 995598735 heartbeat IPC: 0.0579119 cumulative IPC: 0.0585619 (Simulation time: 5 hr 1 min 59 sec) 
Heartbeat CPU 0 instructions: 69000000 cycles: 1012331795 heartbeat IPC: 0.0597619 cumulative IPC: 0.0585819 (Simulation time: 5 hr 2 min 26 sec) 
Heartbeat CPU 0 instructions: 70000000 cycles: 1028870670 heartbeat IPC: 0.0604636 cumulative IPC: 0.0586123 (Simulation time: 5 hr 2 min 52 sec) 
Heartbeat CPU 0 instructions: 71000000 cycles: 1045371814 heartbeat IPC: 0.0606019 cumulative IPC: 0.0586438 (Simulation time: 5 hr 3 min 15 sec) 
Heartbeat CPU 0 instructions: 72000000 cycles: 1062033431 heartbeat IPC: 0.0600182 cumulative IPC: 0.0586655 (Simulation time: 5 hr 3 min 37 sec) 
Heartbeat CPU 0 instructions: 73000000 cycles: 1078910728 heartbeat IPC: 0.0592512 cumulative IPC: 0.0586747 (Simulation time: 5 hr 4 min 0 sec) 
Heartbeat CPU 0 instructions: 74000001 cycles: 1095823947 heartbeat IPC: 0.0591254 cumulative IPC: 0.0586817 (Simulation time: 5 hr 4 min 23 sec) 
Heartbeat CPU 0 instructions: 75000002 cycles: 1112272376 heartbeat IPC: 0.0607961 cumulative IPC: 0.0587131 (Simulation time: 5 hr 4 min 43 sec) 
Heartbeat CPU 0 instructions: 76000000 cycles: 1128916435 heartbeat IPC: 0.0600814 cumulative IPC: 0.0587334 (Simulation time: 5 hr 5 min 4 sec) 
Heartbeat CPU 0 instructions: 77000003 cycles: 1145351275 heartbeat IPC: 0.0608465 cumulative IPC: 0.0587638 (Simulation time: 5 hr 5 min 25 sec) 
Heartbeat CPU 0 instructions: 78000000 cycles: 1161971529 heartbeat IPC: 0.0601674 cumulative IPC: 0.058784 (Simulation time: 5 hr 5 min 46 sec) 
Heartbeat CPU 0 instructions: 79000000 cycles: 1178425839 heartbeat IPC: 0.0607743 cumulative IPC: 0.0588119 (Simulation time: 5 hr 6 min 6 sec) 
Heartbeat CPU 0 instructions: 80000000 cycles: 1194846838 heartbeat IPC: 0.0608976 cumulative IPC: 0.0588407 (Simulation time: 5 hr 6 min 27 sec) 
Heartbeat CPU 0 instructions: 81000001 cycles: 1211217475 heartbeat IPC: 0.061085 cumulative IPC: 0.0588712 (Simulation time: 5 hr 6 min 47 sec) 
Heartbeat CPU 0 instructions: 82000001 cycles: 1226560882 heartbeat IPC: 0.0651746 cumulative IPC: 0.0589504 (Simulation time: 5 hr 7 min 5 sec) 
Heartbeat CPU 0 instructions: 83000002 cycles: 1240901773 heartbeat IPC: 0.0697307 cumulative IPC: 0.0590755 (Simulation time: 5 hr 7 min 22 sec) 
Heartbeat CPU 0 instructions: 84000000 cycles: 1254961782 heartbeat IPC: 0.0711236 cumulative IPC: 0.059211 (Simulation time: 5 hr 7 min 39 sec) 
Heartbeat CPU 0 instructions: 85000000 cycles: 1269846636 heartbeat IPC: 0.0671824 cumulative IPC: 0.0593048 (Simulation time: 5 hr 7 min 56 sec) 
Heartbeat CPU 0 instructions: 86000001 cycles: 1284450740 heartbeat IPC: 0.068474 cumulative IPC: 0.0594095 (Simulation time: 5 hr 8 min 12 sec) 
Heartbeat CPU 0 instructions: 87000001 cycles: 1300534366 heartbeat IPC: 0.062175 cumulative IPC: 0.0594439 (Simulation time: 5 hr 8 min 30 sec) 
Heartbeat CPU 0 instructions: 88000000 cycles: 1316327077 heartbeat IPC: 0.0633203 cumulative IPC: 0.0594905 (Simulation time: 5 hr 8 min 46 sec) 
Heartbeat CPU 0 instructions: 89000001 cycles: 1331545809 heartbeat IPC: 0.0657086 cumulative IPC: 0.0595619 (Simulation time: 5 hr 9 min 2 sec) 
Heartbeat CPU 0 instructions: 90000001 cycles: 1344167103 heartbeat IPC: 0.0792312 cumulative IPC: 0.0597473 (Simulation time: 5 hr 9 min 16 sec) 
Heartbeat CPU 0 instructions: 91000000 cycles: 1360117906 heartbeat IPC: 0.0626927 cumulative IPC: 0.059782 (Simulation time: 5 hr 9 min 32 sec) 
Heartbeat CPU 0 instructions: 92000000 cycles: 1373017312 heartbeat IPC: 0.0775229 cumulative IPC: 0.0599493 (Simulation time: 5 hr 9 min 45 sec) 
Heartbeat CPU 0 instructions: 93000000 cycles: 1390274212 heartbeat IPC: 0.0579478 cumulative IPC: 0.0599243 (Simulation time: 5 hr 10 min 0 sec) 
Heartbeat CPU 0 instructions: 94000000 cycles: 1407508728 heartbeat IPC: 0.0580231 cumulative IPC: 0.059901 (Simulation time: 5 hr 10 min 14 sec) 
Heartbeat CPU 0 instructions: 95000000 cycles: 1424662811 heartbeat IPC: 0.0582952 cumulative IPC: 0.0598816 (Simulation time: 5 hr 10 min 26 sec) 
Heartbeat CPU 0 instructions: 96000000 cycles: 1441992696 heartbeat IPC: 0.0577038 cumulative IPC: 0.0598553 (Simulation time: 5 hr 10 min 37 sec) 
Heartbeat CPU 0 instructions: 97000000 cycles: 1459270582 heartbeat IPC: 0.0578775 cumulative IPC: 0.0598318 (Simulation time: 5 hr 10 min 48 sec) 
Heartbeat CPU 0 instructions: 98000000 cycles: 1476547937 heartbeat IPC: 0.0578792 cumulative IPC: 0.0598089 (Simulation time: 5 hr 10 min 57 sec) 
Heartbeat CPU 0 instructions: 99000000 cycles: 1493521454 heartbeat IPC: 0.0589153 cumulative IPC: 0.0597987 (Simulation time: 5 hr 11 min 7 sec) 
Heartbeat CPU 0 instructions: 100000000 cycles: 1510801257 heartbeat IPC: 0.057871 cumulative IPC: 0.0597766 (Simulation time: 5 hr 11 min 18 sec) 
Heartbeat CPU 0 instructions: 101000002 cycles: 1528140681 heartbeat IPC: 0.0576722 cumulative IPC: 0.0597526 (Simulation time: 5 hr 11 min 27 sec) 
Heartbeat CPU 0 instructions: 102000002 cycles: 1545581896 heartbeat IPC: 0.0573355 cumulative IPC: 0.0597252 (Simulation time: 5 hr 11 min 35 sec) 
Heartbeat CPU 0 instructions: 103000000 cycles: 1563252510 heartbeat IPC: 0.056591 cumulative IPC: 0.0596897 (Simulation time: 5 hr 11 min 45 sec) 
Heartbeat CPU 0 instructions: 104000000 cycles: 1580919764 heartbeat IPC: 0.0566019 cumulative IPC: 0.0596551 (Simulation time: 5 hr 11 min 56 sec) 
Heartbeat CPU 0 instructions: 105000000 cycles: 1598622731 heartbeat IPC: 0.0564877 cumulative IPC: 0.0596199 (Simulation time: 5 hr 12 min 6 sec) 
Heartbeat CPU 0 instructions: 106000002 cycles: 1616179021 heartbeat IPC: 0.0569598 cumulative IPC: 0.0595909 (Simulation time: 5 hr 12 min 17 sec) 
Heartbeat CPU 0 instructions: 107000003 cycles: 1633609505 heartbeat IPC: 0.0573708 cumulative IPC: 0.0595671 (Simulation time: 5 hr 12 min 27 sec) 
Heartbeat CPU 0 instructions: 108000000 cycles: 1651029416 heartbeat IPC: 0.0574054 cumulative IPC: 0.0595442 (Simulation time: 5 hr 12 min 38 sec) 
Heartbeat CPU 0 instructions: 109000000 cycles: 1668126626 heartbeat IPC: 0.0584891 cumulative IPC: 0.0595334 (Simulation time: 5 hr 12 min 48 sec) 
Heartbeat CPU 0 instructions: 110000000 cycles: 1685410909 heartbeat IPC: 0.057856 cumulative IPC: 0.0595161 (Simulation time: 5 hr 12 min 58 sec) 
Finished CPU 0 instructions: 100000000 cycles: 1680216594 cummulative IPC: 0.0595161 (Simulation time: 5 hr 12 min 58 sec) 

ChampSim completed all CPUs

Region of Interest Statistics

CPU 0 cummulative IPC: 0.0595161 instructions: 100000000 cycles: 1680216594
LLC TOTAL     ACCESS:   26994260  HIT:          0  MISS:   26994260
LLC LOAD      ACCESS:   11742873  HIT:          0  MISS:   11742873
LLC RFO       ACCESS:      27358  HIT:          0  MISS:      27358
LLC PREFETCH  ACCESS:   14890269  HIT:          0  MISS:   14890269
LLC WRITEBACK ACCESS:     333760  HIT:          0  MISS:     333760
