
*** ChampSim Multicore Out-of-Order Simulator ***

Warmup Instructions: 10000000
Simulation Instructions: 100000000
Configuration: 2
Number of CPUs: 1
LLC sets: 2048
LLC ways: 16
Off-chip DRAM Channels: 1 Width: 64-bit Data Rate: 1600 MT/s

CPU 0 runs /datasets/cs240c-wi22-a00-public/data/Assignment2-gz/lbm_1004B.trace.gz
CPU 0 L1D next line prefetcher
CPU 0 L2C IP-based stride prefetcher
config 2, num_core 1, llc_sets 2048
Heartbeat CPU 0 instructions: 1000002 cycles: 391415 heartbeat IPC: 2.55484 cumulative IPC: 2.55484 (Simulation time: 0 hr 2 min 17 sec) 
Heartbeat CPU 0 instructions: 2000001 cycles: 782839 heartbeat IPC: 2.55477 cumulative IPC: 2.55481 (Simulation time: 0 hr 4 min 30 sec) 
Heartbeat CPU 0 instructions: 3000001 cycles: 1174188 heartbeat IPC: 2.55526 cumulative IPC: 2.55496 (Simulation time: 0 hr 6 min 46 sec) 
Heartbeat CPU 0 instructions: 4000000 cycles: 1570381 heartbeat IPC: 2.52402 cumulative IPC: 2.54715 (Simulation time: 0 hr 8 min 59 sec) 
Heartbeat CPU 0 instructions: 5000002 cycles: 1961798 heartbeat IPC: 2.55483 cumulative IPC: 2.54868 (Simulation time: 0 hr 11 min 16 sec) 
Heartbeat CPU 0 instructions: 6000002 cycles: 2353166 heartbeat IPC: 2.55514 cumulative IPC: 2.54976 (Simulation time: 0 hr 13 min 23 sec) 
Heartbeat CPU 0 instructions: 7000003 cycles: 2749275 heartbeat IPC: 2.52456 cumulative IPC: 2.54613 (Simulation time: 0 hr 15 min 36 sec) 
Heartbeat CPU 0 instructions: 8000000 cycles: 3140638 heartbeat IPC: 2.55516 cumulative IPC: 2.54725 (Simulation time: 0 hr 17 min 46 sec) 
Heartbeat CPU 0 instructions: 9000003 cycles: 3532084 heartbeat IPC: 2.55464 cumulative IPC: 2.54807 (Simulation time: 0 hr 19 min 53 sec) 
Heartbeat CPU 0 instructions: 10000000 cycles: 3923457 heartbeat IPC: 2.5551 cumulative IPC: 2.54877 (Simulation time: 0 hr 21 min 58 sec) 

Warmup complete CPU 0 instructions: 10000004 cycles: 3923458 (Simulation time: 0 hr 21 min 58 sec) 

Heartbeat CPU 0 instructions: 11000002 cycles: 5560500 heartbeat IPC: 0.610859 cumulative IPC: 0.610857 (Simulation time: 0 hr 24 min 19 sec) 
Heartbeat CPU 0 instructions: 12000000 cycles: 7105967 heartbeat IPC: 0.647052 cumulative IPC: 0.628434 (Simulation time: 0 hr 26 min 49 sec) 
Heartbeat CPU 0 instructions: 13000002 cycles: 8663022 heartbeat IPC: 0.642239 cumulative IPC: 0.632969 (Simulation time: 0 hr 29 min 21 sec) 
Heartbeat CPU 0 instructions: 14000003 cycles: 10263145 heartbeat IPC: 0.624953 cumulative IPC: 0.630946 (Simulation time: 0 hr 31 min 57 sec) 
Heartbeat CPU 0 instructions: 15000003 cycles: 11818547 heartbeat IPC: 0.642921 cumulative IPC: 0.633305 (Simulation time: 0 hr 34 min 38 sec) 
Heartbeat CPU 0 instructions: 16000000 cycles: 13354536 heartbeat IPC: 0.651044 cumulative IPC: 0.636194 (Simulation time: 0 hr 37 min 27 sec) 
Heartbeat CPU 0 instructions: 17000000 cycles: 14970302 heartbeat IPC: 0.618901 cumulative IPC: 0.633665 (Simulation time: 0 hr 40 min 13 sec) 
Heartbeat CPU 0 instructions: 18000002 cycles: 16502647 heartbeat IPC: 0.652596 cumulative IPC: 0.635971 (Simulation time: 0 hr 42 min 50 sec) 
Heartbeat CPU 0 instructions: 19000002 cycles: 18060721 heartbeat IPC: 0.641818 cumulative IPC: 0.636615 (Simulation time: 0 hr 45 min 23 sec) 
Heartbeat CPU 0 instructions: 20000000 cycles: 19607136 heartbeat IPC: 0.646656 cumulative IPC: 0.637605 (Simulation time: 0 hr 47 min 55 sec) 
Heartbeat CPU 0 instructions: 21000003 cycles: 21205163 heartbeat IPC: 0.625774 cumulative IPC: 0.636511 (Simulation time: 0 hr 50 min 26 sec) 
Heartbeat CPU 0 instructions: 22000002 cycles: 22753765 heartbeat IPC: 0.645743 cumulative IPC: 0.63727 (Simulation time: 0 hr 52 min 54 sec) 
Heartbeat CPU 0 instructions: 23000001 cycles: 24293504 heartbeat IPC: 0.64946 cumulative IPC: 0.638192 (Simulation time: 0 hr 55 min 25 sec) 
Heartbeat CPU 0 instructions: 24000000 cycles: 25916758 heartbeat IPC: 0.616046 cumulative IPC: 0.636557 (Simulation time: 0 hr 58 min 7 sec) 
Heartbeat CPU 0 instructions: 25000003 cycles: 27461858 heartbeat IPC: 0.647209 cumulative IPC: 0.637257 (Simulation time: 1 hr 0 min 46 sec) 
Heartbeat CPU 0 instructions: 26000003 cycles: 29015802 heartbeat IPC: 0.643524 cumulative IPC: 0.637645 (Simulation time: 1 hr 3 min 22 sec) 
Heartbeat CPU 0 instructions: 27000000 cycles: 30574192 heartbeat IPC: 0.641686 cumulative IPC: 0.637881 (Simulation time: 1 hr 6 min 3 sec) 
Heartbeat CPU 0 instructions: 28000000 cycles: 32187566 heartbeat IPC: 0.619819 cumulative IPC: 0.63685 (Simulation time: 1 hr 8 min 35 sec) 
Heartbeat CPU 0 instructions: 29000002 cycles: 33745469 heartbeat IPC: 0.64189 cumulative IPC: 0.637113 (Simulation time: 1 hr 11 min 6 sec) 
Heartbeat CPU 0 instructions: 30000003 cycles: 35281133 heartbeat IPC: 0.651185 cumulative IPC: 0.637802 (Simulation time: 1 hr 13 min 41 sec) 
Heartbeat CPU 0 instructions: 31000001 cycles: 36894064 heartbeat IPC: 0.619988 cumulative IPC: 0.636931 (Simulation time: 1 hr 16 min 25 sec) 
Heartbeat CPU 0 instructions: 32000000 cycles: 38430937 heartbeat IPC: 0.650671 cumulative IPC: 0.637543 (Simulation time: 1 hr 19 min 1 sec) 
Heartbeat CPU 0 instructions: 33000000 cycles: 39995327 heartbeat IPC: 0.639227 cumulative IPC: 0.637616 (Simulation time: 1 hr 21 min 43 sec) 
Heartbeat CPU 0 instructions: 34000002 cycles: 41636422 heartbeat IPC: 0.60935 cumulative IPC: 0.636386 (Simulation time: 1 hr 24 min 22 sec) 
Heartbeat CPU 0 instructions: 35000001 cycles: 43187235 heartbeat IPC: 0.644822 cumulative IPC: 0.636719 (Simulation time: 1 hr 26 min 44 sec) 
Heartbeat CPU 0 instructions: 36000000 cycles: 44737340 heartbeat IPC: 0.645117 cumulative IPC: 0.637038 (Simulation time: 1 hr 29 min 19 sec) 
Heartbeat CPU 0 instructions: 37000002 cycles: 46285381 heartbeat IPC: 0.645979 cumulative IPC: 0.637365 (Simulation time: 1 hr 31 min 50 sec) 
Heartbeat CPU 0 instructions: 38000000 cycles: 47889041 heartbeat IPC: 0.623572 cumulative IPC: 0.636862 (Simulation time: 1 hr 34 min 33 sec) 
Heartbeat CPU 0 instructions: 39000003 cycles: 49451556 heartbeat IPC: 0.639996 cumulative IPC: 0.636969 (Simulation time: 1 hr 37 min 8 sec) 
Heartbeat CPU 0 instructions: 40000000 cycles: 50998224 heartbeat IPC: 0.646549 cumulative IPC: 0.637284 (Simulation time: 1 hr 39 min 37 sec) 
Heartbeat CPU 0 instructions: 41000002 cycles: 52597439 heartbeat IPC: 0.625308 cumulative IPC: 0.636891 (Simulation time: 1 hr 42 min 28 sec) 
Heartbeat CPU 0 instructions: 42000000 cycles: 54144456 heartbeat IPC: 0.646404 cumulative IPC: 0.637184 (Simulation time: 1 hr 44 min 55 sec) 
Heartbeat CPU 0 instructions: 43000002 cycles: 55681654 heartbeat IPC: 0.650536 cumulative IPC: 0.63758 (Simulation time: 1 hr 47 min 25 sec) 
Heartbeat CPU 0 instructions: 44000000 cycles: 57316667 heartbeat IPC: 0.611615 cumulative IPC: 0.636785 (Simulation time: 1 hr 50 min 0 sec) 
Heartbeat CPU 0 instructions: 45000000 cycles: 58863065 heartbeat IPC: 0.646664 cumulative IPC: 0.637063 (Simulation time: 1 hr 52 min 34 sec) 
Heartbeat CPU 0 instructions: 46000003 cycles: 60414381 heartbeat IPC: 0.644616 cumulative IPC: 0.637271 (Simulation time: 1 hr 54 min 59 sec) 
Heartbeat CPU 0 instructions: 47000002 cycles: 61954484 heartbeat IPC: 0.649307 cumulative IPC: 0.63759 (Simulation time: 1 hr 57 min 31 sec) 
Heartbeat CPU 0 instructions: 48000000 cycles: 63575483 heartbeat IPC: 0.616902 cumulative IPC: 0.637028 (Simulation time: 1 hr 59 min 59 sec) 
Heartbeat CPU 0 instructions: 49000000 cycles: 65120941 heartbeat IPC: 0.647057 cumulative IPC: 0.637281 (Simulation time: 2 hr 2 min 27 sec) 
Heartbeat CPU 0 instructions: 50000003 cycles: 66666659 heartbeat IPC: 0.64695 cumulative IPC: 0.637519 (Simulation time: 2 hr 4 min 54 sec) 
Heartbeat CPU 0 instructions: 51000001 cycles: 68278053 heartbeat IPC: 0.620579 cumulative IPC: 0.637095 (Simulation time: 2 hr 7 min 23 sec) 
Heartbeat CPU 0 instructions: 52000000 cycles: 69825429 heartbeat IPC: 0.646255 cumulative IPC: 0.63731 (Simulation time: 2 hr 9 min 57 sec) 
Heartbeat CPU 0 instructions: 53000002 cycles: 71376436 heartbeat IPC: 0.644744 cumulative IPC: 0.637481 (Simulation time: 2 hr 12 min 19 sec) 
Heartbeat CPU 0 instructions: 54000002 cycles: 72967434 heartbeat IPC: 0.628536 cumulative IPC: 0.637275 (Simulation time: 2 hr 15 min 0 sec) 
Heartbeat CPU 0 instructions: 55000001 cycles: 74579216 heartbeat IPC: 0.620431 cumulative IPC: 0.636891 (Simulation time: 2 hr 17 min 25 sec) 
Heartbeat CPU 0 instructions: 56000000 cycles: 76143573 heartbeat IPC: 0.63924 cumulative IPC: 0.636942 (Simulation time: 2 hr 19 min 59 sec) 
Heartbeat CPU 0 instructions: 57000003 cycles: 77718141 heartbeat IPC: 0.635097 cumulative IPC: 0.636902 (Simulation time: 2 hr 22 min 39 sec) 
Heartbeat CPU 0 instructions: 58000003 cycles: 79334558 heartbeat IPC: 0.618652 cumulative IPC: 0.636511 (Simulation time: 2 hr 25 min 10 sec) 
Heartbeat CPU 0 instructions: 59000002 cycles: 80910797 heartbeat IPC: 0.634421 cumulative IPC: 0.636468 (Simulation time: 2 hr 27 min 40 sec) 
Heartbeat CPU 0 instructions: 60000000 cycles: 82487691 heartbeat IPC: 0.634157 cumulative IPC: 0.636422 (Simulation time: 2 hr 30 min 33 sec) 
Heartbeat CPU 0 instructions: 61000003 cycles: 84112837 heartbeat IPC: 0.615331 cumulative IPC: 0.635994 (Simulation time: 2 hr 33 min 37 sec) 
Heartbeat CPU 0 instructions: 62000001 cycles: 85655428 heartbeat IPC: 0.648259 cumulative IPC: 0.636226 (Simulation time: 2 hr 36 min 12 sec) 
Heartbeat CPU 0 instructions: 63000001 cycles: 87201835 heartbeat IPC: 0.64666 cumulative IPC: 0.63642 (Simulation time: 2 hr 38 min 42 sec) 
Heartbeat CPU 0 instructions: 64000000 cycles: 88770889 heartbeat IPC: 0.637326 cumulative IPC: 0.636436 (Simulation time: 2 hr 41 min 16 sec) 
Heartbeat CPU 0 instructions: 65000000 cycles: 90396126 heartbeat IPC: 0.615295 cumulative IPC: 0.636039 (Simulation time: 2 hr 43 min 58 sec) 
Heartbeat CPU 0 instructions: 66000000 cycles: 91953275 heartbeat IPC: 0.642199 cumulative IPC: 0.636148 (Simulation time: 2 hr 46 min 30 sec) 
Heartbeat CPU 0 instructions: 67000000 cycles: 93503792 heartbeat IPC: 0.644946 cumulative IPC: 0.6363 (Simulation time: 2 hr 49 min 4 sec) 
Heartbeat CPU 0 instructions: 68000000 cycles: 95125785 heartbeat IPC: 0.616525 cumulative IPC: 0.635949 (Simulation time: 2 hr 51 min 38 sec) 
Heartbeat CPU 0 instructions: 69000000 cycles: 96681385 heartbeat IPC: 0.642839 cumulative IPC: 0.636064 (Simulation time: 2 hr 54 min 5 sec) 
Heartbeat CPU 0 instructions: 70000000 cycles: 98245487 heartbeat IPC: 0.639345 cumulative IPC: 0.636119 (Simulation time: 2 hr 56 min 34 sec) 
Heartbeat CPU 0 instructions: 71000002 cycles: 99845435 heartbeat IPC: 0.625022 cumulative IPC: 0.635934 (Simulation time: 2 hr 59 min 11 sec) 
Heartbeat CPU 0 instructions: 72000000 cycles: 102329571 heartbeat IPC: 0.402554 cumulative IPC: 0.630042 (Simulation time: 3 hr 2 min 23 sec) 
Heartbeat CPU 0 instructions: 73000002 cycles: 105827894 heartbeat IPC: 0.285852 cumulative IPC: 0.618226 (Simulation time: 3 hr 6 min 10 sec) 
Heartbeat CPU 0 instructions: 74000002 cycles: 112616212 heartbeat IPC: 0.147312 cumulative IPC: 0.588816 (Simulation time: 3 hr 11 min 53 sec) 
Heartbeat CPU 0 instructions: 75000000 cycles: 115072928 heartbeat IPC: 0.407047 cumulative IPC: 0.584798 (Simulation time: 3 hr 15 min 3 sec) 
Heartbeat CPU 0 instructions: 76000000 cycles: 117213035 heartbeat IPC: 0.467266 cumulative IPC: 0.582578 (Simulation time: 3 hr 18 min 10 sec) 
Heartbeat CPU 0 instructions: 77000000 cycles: 118774894 heartbeat IPC: 0.640263 cumulative IPC: 0.583362 (Simulation time: 3 hr 21 min 4 sec) 
Heartbeat CPU 0 instructions: 78000002 cycles: 120308688 heartbeat IPC: 0.651979 cumulative IPC: 0.584267 (Simulation time: 3 hr 23 min 50 sec) 
Heartbeat CPU 0 instructions: 79000000 cycles: 121893670 heartbeat IPC: 0.630921 cumulative IPC: 0.584893 (Simulation time: 3 hr 26 min 48 sec) 
Heartbeat CPU 0 instructions: 80000000 cycles: 123453660 heartbeat IPC: 0.64103 cumulative IPC: 0.585626 (Simulation time: 3 hr 29 min 34 sec) 
Heartbeat CPU 0 instructions: 81000001 cycles: 124995507 heartbeat IPC: 0.648573 cumulative IPC: 0.586428 (Simulation time: 3 hr 32 min 22 sec) 
Heartbeat CPU 0 instructions: 82000002 cycles: 126552135 heartbeat IPC: 0.642415 cumulative IPC: 0.587138 (Simulation time: 3 hr 35 min 10 sec) 
Heartbeat CPU 0 instructions: 83000003 cycles: 128161960 heartbeat IPC: 0.621186 cumulative IPC: 0.587579 (Simulation time: 3 hr 38 min 10 sec) 
Heartbeat CPU 0 instructions: 84000000 cycles: 129709512 heartbeat IPC: 0.64618 cumulative IPC: 0.5883 (Simulation time: 3 hr 41 min 7 sec) 
Heartbeat CPU 0 instructions: 85000000 cycles: 131258627 heartbeat IPC: 0.64553 cumulative IPC: 0.588997 (Simulation time: 3 hr 43 min 53 sec) 
Heartbeat CPU 0 instructions: 86000000 cycles: 132899272 heartbeat IPC: 0.609516 cumulative IPC: 0.589258 (Simulation time: 3 hr 46 min 38 sec) 
Heartbeat CPU 0 instructions: 87000002 cycles: 134442073 heartbeat IPC: 0.648173 cumulative IPC: 0.589954 (Simulation time: 3 hr 49 min 13 sec) 
Heartbeat CPU 0 instructions: 88000000 cycles: 135968304 heartbeat IPC: 0.655208 cumulative IPC: 0.590708 (Simulation time: 3 hr 51 min 59 sec) 
Heartbeat CPU 0 instructions: 89000003 cycles: 137519199 heartbeat IPC: 0.644791 cumulative IPC: 0.591336 (Simulation time: 3 hr 54 min 38 sec) 
Heartbeat CPU 0 instructions: 90000002 cycles: 139131146 heartbeat IPC: 0.620367 cumulative IPC: 0.591682 (Simulation time: 3 hr 57 min 18 sec) 
Heartbeat CPU 0 instructions: 91000001 cycles: 140673216 heartbeat IPC: 0.648478 cumulative IPC: 0.592323 (Simulation time: 3 hr 59 min 50 sec) 
Heartbeat CPU 0 instructions: 92000000 cycles: 142221520 heartbeat IPC: 0.645867 cumulative IPC: 0.592922 (Simulation time: 4 hr 2 min 27 sec) 
Heartbeat CPU 0 instructions: 93000003 cycles: 143826715 heartbeat IPC: 0.622979 cumulative IPC: 0.593267 (Simulation time: 4 hr 5 min 3 sec) 
Heartbeat CPU 0 instructions: 94000003 cycles: 145382824 heartbeat IPC: 0.642628 cumulative IPC: 0.59381 (Simulation time: 4 hr 7 min 41 sec) 
Heartbeat CPU 0 instructions: 95000000 cycles: 146923330 heartbeat IPC: 0.649135 cumulative IPC: 0.594406 (Simulation time: 4 hr 10 min 28 sec) 
Heartbeat CPU 0 instructions: 96000000 cycles: 148562010 heartbeat IPC: 0.610247 cumulative IPC: 0.594586 (Simulation time: 4 hr 12 min 59 sec) 
Heartbeat CPU 0 instructions: 97000002 cycles: 150123935 heartbeat IPC: 0.640237 cumulative IPC: 0.595073 (Simulation time: 4 hr 15 min 31 sec) 
Heartbeat CPU 0 instructions: 98000001 cycles: 151692889 heartbeat IPC: 0.637367 cumulative IPC: 0.595522 (Simulation time: 4 hr 18 min 6 sec) 
Heartbeat CPU 0 instructions: 99000000 cycles: 153255010 heartbeat IPC: 0.640155 cumulative IPC: 0.595989 (Simulation time: 4 hr 20 min 29 sec) 
Heartbeat CPU 0 instructions: 100000000 cycles: 154862545 heartbeat IPC: 0.62207 cumulative IPC: 0.596267 (Simulation time: 4 hr 22 min 41 sec) 
Heartbeat CPU 0 instructions: 101000000 cycles: 156411320 heartbeat IPC: 0.645672 cumulative IPC: 0.596769 (Simulation time: 4 hr 24 min 49 sec) 
Heartbeat CPU 0 instructions: 102000000 cycles: 157978963 heartbeat IPC: 0.6379 cumulative IPC: 0.597187 (Simulation time: 4 hr 26 min 53 sec) 
Heartbeat CPU 0 instructions: 103000001 cycles: 159604036 heartbeat IPC: 0.615358 cumulative IPC: 0.597377 (Simulation time: 4 hr 28 min 52 sec) 
Heartbeat CPU 0 instructions: 104000000 cycles: 161163965 heartbeat IPC: 0.641054 cumulative IPC: 0.59781 (Simulation time: 4 hr 30 min 52 sec) 
Heartbeat CPU 0 instructions: 105000001 cycles: 162710356 heartbeat IPC: 0.646668 cumulative IPC: 0.598286 (Simulation time: 4 hr 32 min 36 sec) 
Heartbeat CPU 0 instructions: 106000000 cycles: 164241881 heartbeat IPC: 0.652943 cumulative IPC: 0.598808 (Simulation time: 4 hr 34 min 16 sec) 
Heartbeat CPU 0 instructions: 107000000 cycles: 165891013 heartbeat IPC: 0.60638 cumulative IPC: 0.598885 (Simulation time: 4 hr 35 min 56 sec) 
Heartbeat CPU 0 instructions: 108000000 cycles: 167481691 heartbeat IPC: 0.628663 cumulative IPC: 0.599175 (Simulation time: 4 hr 37 min 30 sec) 
Heartbeat CPU 0 instructions: 109000003 cycles: 169020589 heartbeat IPC: 0.649818 cumulative IPC: 0.599647 (Simulation time: 4 hr 38 min 56 sec) 
Heartbeat CPU 0 instructions: 110000001 cycles: 170643881 heartbeat IPC: 0.616031 cumulative IPC: 0.599807 (Simulation time: 4 hr 40 min 32 sec) 
Finished CPU 0 instructions: 100000001 cycles: 166720424 cummulative IPC: 0.599807 (Simulation time: 4 hr 40 min 32 sec) 

ChampSim completed all CPUs

Region of Interest Statistics

CPU 0 cummulative IPC: 0.599807 instructions: 100000001 cycles: 166720424
LLC TOTAL     ACCESS:    5807758  HIT:          0  MISS:    5807758
LLC LOAD      ACCESS:     423360  HIT:          0  MISS:     423360
LLC RFO       ACCESS:    2473074  HIT:          0  MISS:    2473074
LLC PREFETCH  ACCESS:     438234  HIT:          0  MISS:     438234
LLC WRITEBACK ACCESS:    2473090  HIT:          0  MISS:    2473090
