
*** ChampSim Multicore Out-of-Order Simulator ***

Warmup Instructions: 10000000
Simulation Instructions: 100000000
Configuration: 2
Number of CPUs: 1
LLC sets: 2048
LLC ways: 16
Off-chip DRAM Channels: 1 Width: 64-bit Data Rate: 1600 MT/s

CPU 0 runs /datasets/cs240c-wi22-a00-public/data/Assignment2-gz/omnetpp_340B.trace.gz
CPU 0 L1D next line prefetcher
CPU 0 L2C IP-based stride prefetcher
config 2, num_core 1, llc_sets 2048
Heartbeat CPU 0 instructions: 1000001 cycles: 577003 heartbeat IPC: 1.73309 cumulative IPC: 1.73309 (Simulation time: 0 hr 2 min 43 sec) 
Heartbeat CPU 0 instructions: 2000000 cycles: 1161019 heartbeat IPC: 1.71228 cumulative IPC: 1.72262 (Simulation time: 0 hr 5 min 25 sec) 
Heartbeat CPU 0 instructions: 3000001 cycles: 1758525 heartbeat IPC: 1.67362 cumulative IPC: 1.70598 (Simulation time: 0 hr 8 min 13 sec) 
Heartbeat CPU 0 instructions: 4000000 cycles: 2379713 heartbeat IPC: 1.60982 cumulative IPC: 1.68087 (Simulation time: 0 hr 10 min 54 sec) 
Heartbeat CPU 0 instructions: 5000002 cycles: 2955634 heartbeat IPC: 1.73635 cumulative IPC: 1.69169 (Simulation time: 0 hr 13 min 44 sec) 
Heartbeat CPU 0 instructions: 6000003 cycles: 3557231 heartbeat IPC: 1.66224 cumulative IPC: 1.68671 (Simulation time: 0 hr 16 min 33 sec) 
Heartbeat CPU 0 instructions: 7000003 cycles: 4206857 heartbeat IPC: 1.53935 cumulative IPC: 1.66395 (Simulation time: 0 hr 19 min 8 sec) 
Heartbeat CPU 0 instructions: 8000000 cycles: 4801611 heartbeat IPC: 1.68136 cumulative IPC: 1.66611 (Simulation time: 0 hr 21 min 40 sec) 
Heartbeat CPU 0 instructions: 9000002 cycles: 5435484 heartbeat IPC: 1.57761 cumulative IPC: 1.65579 (Simulation time: 0 hr 24 min 15 sec) 
Heartbeat CPU 0 instructions: 10000002 cycles: 6030180 heartbeat IPC: 1.68153 cumulative IPC: 1.65833 (Simulation time: 0 hr 26 min 52 sec) 

Warmup complete CPU 0 instructions: 10000002 cycles: 6030180 (Simulation time: 0 hr 26 min 52 sec) 

Heartbeat CPU 0 instructions: 11000000 cycles: 10075512 heartbeat IPC: 0.247198 cumulative IPC: 0.247198 (Simulation time: 0 hr 30 min 11 sec) 
Heartbeat CPU 0 instructions: 12000000 cycles: 13933876 heartbeat IPC: 0.259177 cumulative IPC: 0.253046 (Simulation time: 0 hr 33 min 38 sec) 
Heartbeat CPU 0 instructions: 13000000 cycles: 18399640 heartbeat IPC: 0.223926 cumulative IPC: 0.242533 (Simulation time: 0 hr 37 min 10 sec) 
Heartbeat CPU 0 instructions: 14000001 cycles: 22628875 heartbeat IPC: 0.23645 cumulative IPC: 0.240983 (Simulation time: 0 hr 40 min 34 sec) 
Heartbeat CPU 0 instructions: 15000003 cycles: 26941905 heartbeat IPC: 0.231856 cumulative IPC: 0.2391 (Simulation time: 0 hr 44 min 29 sec) 
Heartbeat CPU 0 instructions: 16000000 cycles: 31740458 heartbeat IPC: 0.208396 cumulative IPC: 0.23337 (Simulation time: 0 hr 48 min 5 sec) 
Heartbeat CPU 0 instructions: 17000000 cycles: 35754058 heartbeat IPC: 0.249153 cumulative IPC: 0.235501 (Simulation time: 0 hr 51 min 24 sec) 
Heartbeat CPU 0 instructions: 18000000 cycles: 40183158 heartbeat IPC: 0.22578 cumulative IPC: 0.23424 (Simulation time: 0 hr 54 min 59 sec) 
Heartbeat CPU 0 instructions: 19000000 cycles: 45004184 heartbeat IPC: 0.207425 cumulative IPC: 0.230923 (Simulation time: 0 hr 58 min 36 sec) 
Heartbeat CPU 0 instructions: 20000000 cycles: 49645881 heartbeat IPC: 0.215438 cumulative IPC: 0.229275 (Simulation time: 1 hr 2 min 15 sec) 
Heartbeat CPU 0 instructions: 21000000 cycles: 53500900 heartbeat IPC: 0.259402 cumulative IPC: 0.231722 (Simulation time: 1 hr 5 min 35 sec) 
Heartbeat CPU 0 instructions: 22000001 cycles: 57956589 heartbeat IPC: 0.224432 cumulative IPC: 0.231096 (Simulation time: 1 hr 9 min 3 sec) 
Heartbeat CPU 0 instructions: 23000001 cycles: 62097636 heartbeat IPC: 0.241485 cumulative IPC: 0.231864 (Simulation time: 1 hr 12 min 30 sec) 
Heartbeat CPU 0 instructions: 24000000 cycles: 66069312 heartbeat IPC: 0.251783 cumulative IPC: 0.233181 (Simulation time: 1 hr 16 min 2 sec) 
Heartbeat CPU 0 instructions: 25000000 cycles: 70435255 heartbeat IPC: 0.229046 cumulative IPC: 0.232901 (Simulation time: 1 hr 19 min 19 sec) 
Heartbeat CPU 0 instructions: 26000001 cycles: 74744418 heartbeat IPC: 0.232064 cumulative IPC: 0.232848 (Simulation time: 1 hr 22 min 46 sec) 
Heartbeat CPU 0 instructions: 27000000 cycles: 79091851 heartbeat IPC: 0.230021 cumulative IPC: 0.23268 (Simulation time: 1 hr 26 min 17 sec) 
Heartbeat CPU 0 instructions: 28000000 cycles: 83433667 heartbeat IPC: 0.230318 cumulative IPC: 0.232548 (Simulation time: 1 hr 30 min 12 sec) 
Heartbeat CPU 0 instructions: 29000003 cycles: 87968436 heartbeat IPC: 0.220519 cumulative IPC: 0.231882 (Simulation time: 1 hr 33 min 48 sec) 
Heartbeat CPU 0 instructions: 30000000 cycles: 92315807 heartbeat IPC: 0.230023 cumulative IPC: 0.231788 (Simulation time: 1 hr 37 min 9 sec) 
Heartbeat CPU 0 instructions: 31000000 cycles: 96674047 heartbeat IPC: 0.22945 cumulative IPC: 0.231676 (Simulation time: 1 hr 40 min 26 sec) 
Heartbeat CPU 0 instructions: 32000000 cycles: 100961961 heartbeat IPC: 0.233214 cumulative IPC: 0.231745 (Simulation time: 1 hr 43 min 48 sec) 
Heartbeat CPU 0 instructions: 33000003 cycles: 105148648 heartbeat IPC: 0.238853 cumulative IPC: 0.232046 (Simulation time: 1 hr 47 min 20 sec) 
Heartbeat CPU 0 instructions: 34000001 cycles: 109671462 heartbeat IPC: 0.221101 cumulative IPC: 0.231568 (Simulation time: 1 hr 50 min 47 sec) 
Heartbeat CPU 0 instructions: 35000002 cycles: 113551856 heartbeat IPC: 0.257706 cumulative IPC: 0.232511 (Simulation time: 1 hr 54 min 2 sec) 
Heartbeat CPU 0 instructions: 36000000 cycles: 118382756 heartbeat IPC: 0.207 cumulative IPC: 0.231414 (Simulation time: 1 hr 57 min 36 sec) 
Heartbeat CPU 0 instructions: 37000000 cycles: 123242886 heartbeat IPC: 0.205756 cumulative IPC: 0.23035 (Simulation time: 2 hr 1 min 11 sec) 
Heartbeat CPU 0 instructions: 38000000 cycles: 127427863 heartbeat IPC: 0.23895 cumulative IPC: 0.230647 (Simulation time: 2 hr 4 min 28 sec) 
Heartbeat CPU 0 instructions: 39000001 cycles: 131727519 heartbeat IPC: 0.232577 cumulative IPC: 0.230713 (Simulation time: 2 hr 7 min 37 sec) 
Heartbeat CPU 0 instructions: 40000000 cycles: 135399437 heartbeat IPC: 0.272337 cumulative IPC: 0.231894 (Simulation time: 2 hr 10 min 44 sec) 
Heartbeat CPU 0 instructions: 41000000 cycles: 139330043 heartbeat IPC: 0.254414 cumulative IPC: 0.232558 (Simulation time: 2 hr 14 min 1 sec) 
Heartbeat CPU 0 instructions: 42000001 cycles: 143889606 heartbeat IPC: 0.219319 cumulative IPC: 0.23212 (Simulation time: 2 hr 17 min 18 sec) 
Heartbeat CPU 0 instructions: 43000001 cycles: 148228165 heartbeat IPC: 0.230491 cumulative IPC: 0.232071 (Simulation time: 2 hr 20 min 28 sec) 
Heartbeat CPU 0 instructions: 44000000 cycles: 152133451 heartbeat IPC: 0.256063 cumulative IPC: 0.232712 (Simulation time: 2 hr 23 min 28 sec) 
Heartbeat CPU 0 instructions: 45000003 cycles: 156287309 heartbeat IPC: 0.240741 cumulative IPC: 0.232934 (Simulation time: 2 hr 26 min 27 sec) 
Heartbeat CPU 0 instructions: 46000003 cycles: 160897874 heartbeat IPC: 0.216893 cumulative IPC: 0.232456 (Simulation time: 2 hr 30 min 4 sec) 
Heartbeat CPU 0 instructions: 47000000 cycles: 164509877 heartbeat IPC: 0.276854 cumulative IPC: 0.233468 (Simulation time: 2 hr 33 min 46 sec) 
Heartbeat CPU 0 instructions: 48000000 cycles: 169249132 heartbeat IPC: 0.211004 cumulative IPC: 0.232816 (Simulation time: 2 hr 37 min 40 sec) 
Heartbeat CPU 0 instructions: 49000000 cycles: 172612221 heartbeat IPC: 0.297346 cumulative IPC: 0.234119 (Simulation time: 2 hr 40 min 45 sec) 
Heartbeat CPU 0 instructions: 50000001 cycles: 177051752 heartbeat IPC: 0.225249 cumulative IPC: 0.233889 (Simulation time: 2 hr 44 min 4 sec) 
Heartbeat CPU 0 instructions: 51000003 cycles: 181222227 heartbeat IPC: 0.239781 cumulative IPC: 0.234029 (Simulation time: 2 hr 47 min 26 sec) 
Heartbeat CPU 0 instructions: 52000000 cycles: 185492388 heartbeat IPC: 0.234183 cumulative IPC: 0.234033 (Simulation time: 2 hr 51 min 17 sec) 
Heartbeat CPU 0 instructions: 53000000 cycles: 190857630 heartbeat IPC: 0.186385 cumulative IPC: 0.232649 (Simulation time: 2 hr 54 min 49 sec) 
Heartbeat CPU 0 instructions: 54000002 cycles: 195402175 heartbeat IPC: 0.220044 cumulative IPC: 0.232347 (Simulation time: 2 hr 58 min 21 sec) 
Heartbeat CPU 0 instructions: 55000001 cycles: 199668491 heartbeat IPC: 0.234394 cumulative IPC: 0.232392 (Simulation time: 3 hr 1 min 59 sec) 
Heartbeat CPU 0 instructions: 56000000 cycles: 204447288 heartbeat IPC: 0.209257 cumulative IPC: 0.231835 (Simulation time: 3 hr 5 min 27 sec) 
Heartbeat CPU 0 instructions: 57000001 cycles: 208728173 heartbeat IPC: 0.233597 cumulative IPC: 0.231872 (Simulation time: 3 hr 8 min 44 sec) 
Heartbeat CPU 0 instructions: 58000000 cycles: 212352540 heartbeat IPC: 0.27591 cumulative IPC: 0.232646 (Simulation time: 3 hr 11 min 58 sec) 
Heartbeat CPU 0 instructions: 59000003 cycles: 216646616 heartbeat IPC: 0.23288 cumulative IPC: 0.23265 (Simulation time: 3 hr 15 min 33 sec) 
Heartbeat CPU 0 instructions: 60000000 cycles: 221689999 heartbeat IPC: 0.198279 cumulative IPC: 0.231847 (Simulation time: 3 hr 19 min 15 sec) 
Heartbeat CPU 0 instructions: 61000001 cycles: 226447899 heartbeat IPC: 0.210177 cumulative IPC: 0.231379 (Simulation time: 3 hr 22 min 49 sec) 
Heartbeat CPU 0 instructions: 62000000 cycles: 231204894 heartbeat IPC: 0.210217 cumulative IPC: 0.230932 (Simulation time: 3 hr 26 min 11 sec) 
Heartbeat CPU 0 instructions: 63000001 cycles: 235273719 heartbeat IPC: 0.245771 cumulative IPC: 0.231195 (Simulation time: 3 hr 29 min 21 sec) 
Heartbeat CPU 0 instructions: 64000000 cycles: 239331274 heartbeat IPC: 0.246454 cumulative IPC: 0.231461 (Simulation time: 3 hr 32 min 26 sec) 
Heartbeat CPU 0 instructions: 65000001 cycles: 243003641 heartbeat IPC: 0.272304 cumulative IPC: 0.232093 (Simulation time: 3 hr 35 min 38 sec) 
Heartbeat CPU 0 instructions: 66000002 cycles: 247383310 heartbeat IPC: 0.228328 cumulative IPC: 0.232025 (Simulation time: 3 hr 38 min 49 sec) 
Heartbeat CPU 0 instructions: 67000002 cycles: 251523490 heartbeat IPC: 0.241535 cumulative IPC: 0.232186 (Simulation time: 3 hr 42 min 10 sec) 
Heartbeat CPU 0 instructions: 68000000 cycles: 255726417 heartbeat IPC: 0.237929 cumulative IPC: 0.232282 (Simulation time: 3 hr 45 min 33 sec) 
Heartbeat CPU 0 instructions: 69000000 cycles: 260342393 heartbeat IPC: 0.216639 cumulative IPC: 0.231998 (Simulation time: 3 hr 49 min 5 sec) 
Heartbeat CPU 0 instructions: 70000001 cycles: 264386755 heartbeat IPC: 0.247258 cumulative IPC: 0.232237 (Simulation time: 3 hr 52 min 12 sec) 
Heartbeat CPU 0 instructions: 71000003 cycles: 268668131 heartbeat IPC: 0.23357 cumulative IPC: 0.232259 (Simulation time: 3 hr 55 min 36 sec) 
Heartbeat CPU 0 instructions: 72000000 cycles: 273840089 heartbeat IPC: 0.19335 cumulative IPC: 0.231507 (Simulation time: 3 hr 59 min 18 sec) 
Heartbeat CPU 0 instructions: 73000002 cycles: 278111970 heartbeat IPC: 0.234089 cumulative IPC: 0.231548 (Simulation time: 4 hr 2 min 32 sec) 
Heartbeat CPU 0 instructions: 74000000 cycles: 282351056 heartbeat IPC: 0.235899 cumulative IPC: 0.231615 (Simulation time: 4 hr 5 min 48 sec) 
Heartbeat CPU 0 instructions: 75000003 cycles: 286739229 heartbeat IPC: 0.227886 cumulative IPC: 0.231556 (Simulation time: 4 hr 9 min 15 sec) 
Heartbeat CPU 0 instructions: 76000000 cycles: 290880124 heartbeat IPC: 0.241493 cumulative IPC: 0.231701 (Simulation time: 4 hr 12 min 40 sec) 
Heartbeat CPU 0 instructions: 77000002 cycles: 296402723 heartbeat IPC: 0.181075 cumulative IPC: 0.230738 (Simulation time: 4 hr 16 min 15 sec) 
Heartbeat CPU 0 instructions: 78000003 cycles: 300676807 heartbeat IPC: 0.233968 cumulative IPC: 0.230785 (Simulation time: 4 hr 19 min 34 sec) 
Heartbeat CPU 0 instructions: 79000002 cycles: 304896725 heartbeat IPC: 0.236971 cumulative IPC: 0.230872 (Simulation time: 4 hr 22 min 32 sec) 
Heartbeat CPU 0 instructions: 80000000 cycles: 309003611 heartbeat IPC: 0.243493 cumulative IPC: 0.231043 (Simulation time: 4 hr 25 min 28 sec) 
Heartbeat CPU 0 instructions: 81000002 cycles: 313654896 heartbeat IPC: 0.214995 cumulative IPC: 0.230801 (Simulation time: 4 hr 28 min 27 sec) 
Heartbeat CPU 0 instructions: 82000000 cycles: 318716351 heartbeat IPC: 0.197571 cumulative IPC: 0.230263 (Simulation time: 4 hr 31 min 16 sec) 
Heartbeat CPU 0 instructions: 83000002 cycles: 322905369 heartbeat IPC: 0.23872 cumulative IPC: 0.230375 (Simulation time: 4 hr 33 min 31 sec) 
Heartbeat CPU 0 instructions: 84000000 cycles: 327021100 heartbeat IPC: 0.24297 cumulative IPC: 0.230536 (Simulation time: 4 hr 35 min 44 sec) 
Heartbeat CPU 0 instructions: 85000000 cycles: 331189620 heartbeat IPC: 0.239893 cumulative IPC: 0.230656 (Simulation time: 4 hr 37 min 49 sec) 
Heartbeat CPU 0 instructions: 86000000 cycles: 335515388 heartbeat IPC: 0.231173 cumulative IPC: 0.230663 (Simulation time: 4 hr 39 min 53 sec) 
Heartbeat CPU 0 instructions: 87000001 cycles: 339543228 heartbeat IPC: 0.248272 cumulative IPC: 0.230876 (Simulation time: 4 hr 41 min 58 sec) 
Heartbeat CPU 0 instructions: 88000000 cycles: 343822320 heartbeat IPC: 0.233694 cumulative IPC: 0.230911 (Simulation time: 4 hr 44 min 1 sec) 
Heartbeat CPU 0 instructions: 89000003 cycles: 347689071 heartbeat IPC: 0.258616 cumulative IPC: 0.231225 (Simulation time: 4 hr 45 min 41 sec) 
Heartbeat CPU 0 instructions: 90000000 cycles: 351938955 heartbeat IPC: 0.2353 cumulative IPC: 0.231275 (Simulation time: 4 hr 47 min 16 sec) 
Heartbeat CPU 0 instructions: 91000001 cycles: 356105795 heartbeat IPC: 0.23999 cumulative IPC: 0.231379 (Simulation time: 4 hr 48 min 45 sec) 
Heartbeat CPU 0 instructions: 92000000 cycles: 360668798 heartbeat IPC: 0.219154 cumulative IPC: 0.231221 (Simulation time: 4 hr 50 min 7 sec) 
Heartbeat CPU 0 instructions: 93000001 cycles: 365833496 heartbeat IPC: 0.193622 cumulative IPC: 0.230682 (Simulation time: 4 hr 51 min 43 sec) 
Heartbeat CPU 0 instructions: 94000001 cycles: 370000916 heartbeat IPC: 0.239957 cumulative IPC: 0.230788 (Simulation time: 4 hr 52 min 58 sec) 
Heartbeat CPU 0 instructions: 95000000 cycles: 374320995 heartbeat IPC: 0.231477 cumulative IPC: 0.230796 (Simulation time: 4 hr 54 min 19 sec) 
Heartbeat CPU 0 instructions: 96000000 cycles: 379301226 heartbeat IPC: 0.200794 cumulative IPC: 0.230396 (Simulation time: 4 hr 55 min 26 sec) 
Heartbeat CPU 0 instructions: 97000000 cycles: 383234538 heartbeat IPC: 0.254239 cumulative IPC: 0.230644 (Simulation time: 4 hr 56 min 16 sec) 
Heartbeat CPU 0 instructions: 98000000 cycles: 388020430 heartbeat IPC: 0.208947 cumulative IPC: 0.230372 (Simulation time: 4 hr 57 min 5 sec) 
Heartbeat CPU 0 instructions: 99000000 cycles: 392996763 heartbeat IPC: 0.200951 cumulative IPC: 0.229994 (Simulation time: 4 hr 57 min 49 sec) 
Heartbeat CPU 0 instructions: 100000000 cycles: 397444887 heartbeat IPC: 0.224814 cumulative IPC: 0.229935 (Simulation time: 4 hr 58 min 27 sec) 
Heartbeat CPU 0 instructions: 101000003 cycles: 401583335 heartbeat IPC: 0.241637 cumulative IPC: 0.230058 (Simulation time: 4 hr 59 min 0 sec) 
Heartbeat CPU 0 instructions: 102000003 cycles: 406142919 heartbeat IPC: 0.219318 cumulative IPC: 0.229935 (Simulation time: 4 hr 59 min 30 sec) 
Heartbeat CPU 0 instructions: 103000000 cycles: 410339680 heartbeat IPC: 0.238278 cumulative IPC: 0.230022 (Simulation time: 4 hr 59 min 56 sec) 
Heartbeat CPU 0 instructions: 104000000 cycles: 414522408 heartbeat IPC: 0.239078 cumulative IPC: 0.230115 (Simulation time: 5 hr 0 min 21 sec) 
Heartbeat CPU 0 instructions: 105000003 cycles: 419209942 heartbeat IPC: 0.213332 cumulative IPC: 0.229924 (Simulation time: 5 hr 0 min 45 sec) 
Heartbeat CPU 0 instructions: 106000001 cycles: 423345573 heartbeat IPC: 0.241801 cumulative IPC: 0.230042 (Simulation time: 5 hr 1 min 7 sec) 
Heartbeat CPU 0 instructions: 107000000 cycles: 427917071 heartbeat IPC: 0.218746 cumulative IPC: 0.229919 (Simulation time: 5 hr 1 min 30 sec) 
Heartbeat CPU 0 instructions: 108000000 cycles: 432552853 heartbeat IPC: 0.215713 cumulative IPC: 0.229765 (Simulation time: 5 hr 1 min 52 sec) 
Heartbeat CPU 0 instructions: 109000000 cycles: 437330072 heartbeat IPC: 0.209327 cumulative IPC: 0.229539 (Simulation time: 5 hr 2 min 11 sec) 
Heartbeat CPU 0 instructions: 110000000 cycles: 441395041 heartbeat IPC: 0.246004 cumulative IPC: 0.229692 (Simulation time: 5 hr 2 min 28 sec) 
Finished CPU 0 instructions: 100000000 cycles: 435364865 cummulative IPC: 0.229692 (Simulation time: 5 hr 2 min 28 sec) 

ChampSim completed all CPUs

Region of Interest Statistics

CPU 0 cummulative IPC: 0.229692 instructions: 100000000 cycles: 435364865
LLC TOTAL     ACCESS:    4309264  HIT:          0  MISS:    4309264
LLC LOAD      ACCESS:    1525896  HIT:          0  MISS:    1525896
LLC RFO       ACCESS:     246587  HIT:          0  MISS:     246587
LLC PREFETCH  ACCESS:    1530737  HIT:          0  MISS:    1530737
LLC WRITEBACK ACCESS:    1006044  HIT:          0  MISS:    1006044
