
*** ChampSim Multicore Out-of-Order Simulator ***

Warmup Instructions: 10000000
Simulation Instructions: 100000000
Configuration: 2
Number of CPUs: 1
LLC sets: 2048
LLC ways: 16
Off-chip DRAM Channels: 1 Width: 64-bit Data Rate: 1600 MT/s

CPU 0 runs /datasets/cs240c-wi22-a00-public/data/Assignment2-gz/soplex_66B.trace.gz
CPU 0 L1D next line prefetcher
CPU 0 L2C IP-based stride prefetcher
config 2, num_core 1, llc_sets 2048
Heartbeat CPU 0 instructions: 1000003 cycles: 415145 heartbeat IPC: 2.4088 cumulative IPC: 2.4088 (Simulation time: 0 hr 2 min 17 sec) 
Heartbeat CPU 0 instructions: 2000003 cycles: 837770 heartbeat IPC: 2.36616 cumulative IPC: 2.38729 (Simulation time: 0 hr 4 min 54 sec) 
Heartbeat CPU 0 instructions: 3000003 cycles: 1243693 heartbeat IPC: 2.46352 cumulative IPC: 2.41217 (Simulation time: 0 hr 7 min 38 sec) 
Heartbeat CPU 0 instructions: 4000000 cycles: 1627812 heartbeat IPC: 2.60335 cumulative IPC: 2.45729 (Simulation time: 0 hr 9 min 50 sec) 
Heartbeat CPU 0 instructions: 5000000 cycles: 2037372 heartbeat IPC: 2.44164 cumulative IPC: 2.45414 (Simulation time: 0 hr 12 min 15 sec) 
Heartbeat CPU 0 instructions: 6000000 cycles: 2506182 heartbeat IPC: 2.13306 cumulative IPC: 2.39408 (Simulation time: 0 hr 14 min 29 sec) 
Heartbeat CPU 0 instructions: 7000002 cycles: 2879239 heartbeat IPC: 2.68056 cumulative IPC: 2.4312 (Simulation time: 0 hr 16 min 49 sec) 
Heartbeat CPU 0 instructions: 8000000 cycles: 3305216 heartbeat IPC: 2.34754 cumulative IPC: 2.42042 (Simulation time: 0 hr 19 min 46 sec) 
Heartbeat CPU 0 instructions: 9000001 cycles: 3743623 heartbeat IPC: 2.28099 cumulative IPC: 2.40409 (Simulation time: 0 hr 22 min 9 sec) 
Heartbeat CPU 0 instructions: 10000002 cycles: 4156150 heartbeat IPC: 2.42409 cumulative IPC: 2.40607 (Simulation time: 0 hr 24 min 53 sec) 

Warmup complete CPU 0 instructions: 10000002 cycles: 4156150 (Simulation time: 0 hr 24 min 53 sec) 

Heartbeat CPU 0 instructions: 11000001 cycles: 8086027 heartbeat IPC: 0.254461 cumulative IPC: 0.254461 (Simulation time: 0 hr 28 min 17 sec) 
Heartbeat CPU 0 instructions: 12000000 cycles: 9563930 heartbeat IPC: 0.676634 cumulative IPC: 0.369837 (Simulation time: 0 hr 30 min 25 sec) 
Heartbeat CPU 0 instructions: 13000001 cycles: 12423714 heartbeat IPC: 0.349677 cumulative IPC: 0.362864 (Simulation time: 0 hr 33 min 17 sec) 
Heartbeat CPU 0 instructions: 14000002 cycles: 15267161 heartbeat IPC: 0.351686 cumulative IPC: 0.360003 (Simulation time: 0 hr 36 min 2 sec) 
Heartbeat CPU 0 instructions: 15000002 cycles: 18310937 heartbeat IPC: 0.328539 cumulative IPC: 0.353237 (Simulation time: 0 hr 38 min 32 sec) 
Heartbeat CPU 0 instructions: 16000000 cycles: 21644341 heartbeat IPC: 0.299993 cumulative IPC: 0.343089 (Simulation time: 0 hr 41 min 27 sec) 
Heartbeat CPU 0 instructions: 17000001 cycles: 24489684 heartbeat IPC: 0.351452 cumulative IPC: 0.344259 (Simulation time: 0 hr 44 min 43 sec) 
Heartbeat CPU 0 instructions: 18000000 cycles: 26750290 heartbeat IPC: 0.442359 cumulative IPC: 0.354074 (Simulation time: 0 hr 47 min 30 sec) 
Heartbeat CPU 0 instructions: 19000002 cycles: 31158319 heartbeat IPC: 0.226859 cumulative IPC: 0.333307 (Simulation time: 0 hr 51 min 15 sec) 
Heartbeat CPU 0 instructions: 20000000 cycles: 32643107 heartbeat IPC: 0.673495 cumulative IPC: 0.351038 (Simulation time: 0 hr 53 min 25 sec) 
Heartbeat CPU 0 instructions: 21000000 cycles: 35094532 heartbeat IPC: 0.407926 cumulative IPC: 0.355545 (Simulation time: 0 hr 56 min 7 sec) 
Heartbeat CPU 0 instructions: 22000000 cycles: 38179681 heartbeat IPC: 0.324133 cumulative IPC: 0.352697 (Simulation time: 0 hr 58 min 52 sec) 
Heartbeat CPU 0 instructions: 23000000 cycles: 41158962 heartbeat IPC: 0.335651 cumulative IPC: 0.351325 (Simulation time: 1 hr 1 min 23 sec) 
Heartbeat CPU 0 instructions: 24000000 cycles: 44214069 heartbeat IPC: 0.327321 cumulative IPC: 0.349494 (Simulation time: 1 hr 3 min 56 sec) 
Heartbeat CPU 0 instructions: 25000003 cycles: 47293671 heartbeat IPC: 0.324718 cumulative IPC: 0.347725 (Simulation time: 1 hr 7 min 40 sec) 
Heartbeat CPU 0 instructions: 26000001 cycles: 49727020 heartbeat IPC: 0.410955 cumulative IPC: 0.351101 (Simulation time: 1 hr 10 min 28 sec) 
Heartbeat CPU 0 instructions: 27000002 cycles: 54194392 heartbeat IPC: 0.223845 cumulative IPC: 0.33974 (Simulation time: 1 hr 14 min 9 sec) 
Heartbeat CPU 0 instructions: 28000000 cycles: 55690022 heartbeat IPC: 0.668613 cumulative IPC: 0.349285 (Simulation time: 1 hr 16 min 19 sec) 
Heartbeat CPU 0 instructions: 29000002 cycles: 57722178 heartbeat IPC: 0.492089 cumulative IPC: 0.354702 (Simulation time: 1 hr 18 min 34 sec) 
Heartbeat CPU 0 instructions: 30000000 cycles: 61013056 heartbeat IPC: 0.30387 cumulative IPC: 0.35176 (Simulation time: 1 hr 21 min 35 sec) 
Heartbeat CPU 0 instructions: 31000001 cycles: 64009770 heartbeat IPC: 0.333699 cumulative IPC: 0.350856 (Simulation time: 1 hr 24 min 2 sec) 
Heartbeat CPU 0 instructions: 32000000 cycles: 66950502 heartbeat IPC: 0.340051 cumulative IPC: 0.35035 (Simulation time: 1 hr 26 min 32 sec) 
Heartbeat CPU 0 instructions: 33000001 cycles: 71054858 heartbeat IPC: 0.243644 cumulative IPC: 0.343803 (Simulation time: 1 hr 30 min 8 sec) 
Heartbeat CPU 0 instructions: 34000003 cycles: 73504763 heartbeat IPC: 0.40818 cumulative IPC: 0.346078 (Simulation time: 1 hr 33 min 11 sec) 
Heartbeat CPU 0 instructions: 35000003 cycles: 77422523 heartbeat IPC: 0.255248 cumulative IPC: 0.341221 (Simulation time: 1 hr 36 min 32 sec) 
Heartbeat CPU 0 instructions: 36000000 cycles: 78901674 heartbeat IPC: 0.676061 cumulative IPC: 0.347847 (Simulation time: 1 hr 38 min 46 sec) 
Heartbeat CPU 0 instructions: 37000000 cycles: 81785818 heartbeat IPC: 0.346723 cumulative IPC: 0.347805 (Simulation time: 1 hr 41 min 27 sec) 
Heartbeat CPU 0 instructions: 38000000 cycles: 84613007 heartbeat IPC: 0.353708 cumulative IPC: 0.348013 (Simulation time: 1 hr 44 min 12 sec) 
Heartbeat CPU 0 instructions: 39000003 cycles: 87669457 heartbeat IPC: 0.327178 cumulative IPC: 0.34725 (Simulation time: 1 hr 46 min 46 sec) 
Heartbeat CPU 0 instructions: 40000000 cycles: 90987801 heartbeat IPC: 0.301354 cumulative IPC: 0.345496 (Simulation time: 1 hr 49 min 38 sec) 
Heartbeat CPU 0 instructions: 41000001 cycles: 93822358 heartbeat IPC: 0.352789 cumulative IPC: 0.345727 (Simulation time: 1 hr 52 min 51 sec) 
Heartbeat CPU 0 instructions: 42000003 cycles: 96081678 heartbeat IPC: 0.442612 cumulative IPC: 0.348108 (Simulation time: 1 hr 55 min 45 sec) 
Heartbeat CPU 0 instructions: 43000000 cycles: 100507546 heartbeat IPC: 0.225944 cumulative IPC: 0.342496 (Simulation time: 1 hr 59 min 19 sec) 
Heartbeat CPU 0 instructions: 44000000 cycles: 101988088 heartbeat IPC: 0.675428 cumulative IPC: 0.347535 (Simulation time: 2 hr 1 min 30 sec) 
Heartbeat CPU 0 instructions: 45000003 cycles: 104432345 heartbeat IPC: 0.409124 cumulative IPC: 0.349036 (Simulation time: 2 hr 3 min 49 sec) 
Heartbeat CPU 0 instructions: 46000003 cycles: 107532934 heartbeat IPC: 0.322519 cumulative IPC: 0.348241 (Simulation time: 2 hr 6 min 40 sec) 
Heartbeat CPU 0 instructions: 47000001 cycles: 110515895 heartbeat IPC: 0.335237 cumulative IPC: 0.347876 (Simulation time: 2 hr 9 min 6 sec) 
Heartbeat CPU 0 instructions: 48000000 cycles: 113558425 heartbeat IPC: 0.328674 cumulative IPC: 0.347342 (Simulation time: 2 hr 11 min 27 sec) 
Heartbeat CPU 0 instructions: 49000003 cycles: 117239580 heartbeat IPC: 0.271655 cumulative IPC: 0.344878 (Simulation time: 2 hr 15 min 15 sec) 
Heartbeat CPU 0 instructions: 50000003 cycles: 123392234 heartbeat IPC: 0.162531 cumulative IPC: 0.335469 (Simulation time: 2 hr 18 min 55 sec) 
Heartbeat CPU 0 instructions: 51000002 cycles: 125969615 heartbeat IPC: 0.38799 cumulative IPC: 0.33658 (Simulation time: 2 hr 22 min 19 sec) 
Heartbeat CPU 0 instructions: 52000000 cycles: 130436673 heartbeat IPC: 0.223861 cumulative IPC: 0.332593 (Simulation time: 2 hr 25 min 38 sec) 
Heartbeat CPU 0 instructions: 53000003 cycles: 133593089 heartbeat IPC: 0.316816 cumulative IPC: 0.332208 (Simulation time: 2 hr 28 min 42 sec) 
Heartbeat CPU 0 instructions: 54000000 cycles: 136517943 heartbeat IPC: 0.341896 cumulative IPC: 0.332422 (Simulation time: 2 hr 31 min 36 sec) 
Heartbeat CPU 0 instructions: 55000002 cycles: 142102793 heartbeat IPC: 0.179056 cumulative IPC: 0.326213 (Simulation time: 2 hr 34 min 56 sec) 
Heartbeat CPU 0 instructions: 56000000 cycles: 149349287 heartbeat IPC: 0.137997 cumulative IPC: 0.316819 (Simulation time: 2 hr 39 min 2 sec) 
Heartbeat CPU 0 instructions: 57000003 cycles: 153619800 heartbeat IPC: 0.234165 cumulative IPC: 0.314458 (Simulation time: 2 hr 42 min 18 sec) 
Heartbeat CPU 0 instructions: 58000000 cycles: 157630486 heartbeat IPC: 0.249333 cumulative IPC: 0.312756 (Simulation time: 2 hr 45 min 48 sec) 
Heartbeat CPU 0 instructions: 59000002 cycles: 159680386 heartbeat IPC: 0.48783 cumulative IPC: 0.315063 (Simulation time: 2 hr 48 min 55 sec) 
Heartbeat CPU 0 instructions: 60000000 cycles: 161596912 heartbeat IPC: 0.521776 cumulative IPC: 0.31758 (Simulation time: 2 hr 51 min 42 sec) 
Heartbeat CPU 0 instructions: 61000002 cycles: 166386279 heartbeat IPC: 0.208796 cumulative IPC: 0.314368 (Simulation time: 2 hr 55 min 22 sec) 
Heartbeat CPU 0 instructions: 62000000 cycles: 170506838 heartbeat IPC: 0.242685 cumulative IPC: 0.312593 (Simulation time: 2 hr 59 min 24 sec) 
Heartbeat CPU 0 instructions: 63000002 cycles: 172894781 heartbeat IPC: 0.418771 cumulative IPC: 0.314095 (Simulation time: 3 hr 2 min 53 sec) 
Heartbeat CPU 0 instructions: 64000000 cycles: 175604906 heartbeat IPC: 0.368986 cumulative IPC: 0.314963 (Simulation time: 3 hr 5 min 46 sec) 
Heartbeat CPU 0 instructions: 65000000 cycles: 180080046 heartbeat IPC: 0.223457 cumulative IPC: 0.312635 (Simulation time: 3 hr 9 min 39 sec) 
Heartbeat CPU 0 instructions: 66000001 cycles: 181590103 heartbeat IPC: 0.662227 cumulative IPC: 0.31561 (Simulation time: 3 hr 11 min 55 sec) 
Heartbeat CPU 0 instructions: 67000000 cycles: 183053188 heartbeat IPC: 0.683487 cumulative IPC: 0.318619 (Simulation time: 3 hr 14 min 12 sec) 
Heartbeat CPU 0 instructions: 68000000 cycles: 186714716 heartbeat IPC: 0.27311 cumulative IPC: 0.317706 (Simulation time: 3 hr 17 min 24 sec) 
Heartbeat CPU 0 instructions: 69000000 cycles: 189712533 heartbeat IPC: 0.333576 cumulative IPC: 0.317963 (Simulation time: 3 hr 19 min 54 sec) 
Heartbeat CPU 0 instructions: 70000001 cycles: 192648517 heartbeat IPC: 0.340602 cumulative IPC: 0.318315 (Simulation time: 3 hr 22 min 21 sec) 
Heartbeat CPU 0 instructions: 71000000 cycles: 195540607 heartbeat IPC: 0.34577 cumulative IPC: 0.31873 (Simulation time: 3 hr 25 min 40 sec) 
Heartbeat CPU 0 instructions: 72000000 cycles: 198757463 heartbeat IPC: 0.310863 cumulative IPC: 0.3186 (Simulation time: 3 hr 28 min 40 sec) 
Heartbeat CPU 0 instructions: 73000002 cycles: 202397870 heartbeat IPC: 0.274695 cumulative IPC: 0.317794 (Simulation time: 3 hr 32 min 11 sec) 
Heartbeat CPU 0 instructions: 74000000 cycles: 204781424 heartbeat IPC: 0.419541 cumulative IPC: 0.319003 (Simulation time: 3 hr 34 min 39 sec) 
Heartbeat CPU 0 instructions: 75000002 cycles: 206241481 heartbeat IPC: 0.684906 cumulative IPC: 0.321646 (Simulation time: 3 hr 36 min 49 sec) 
Heartbeat CPU 0 instructions: 76000000 cycles: 209782371 heartbeat IPC: 0.282414 cumulative IPC: 0.320971 (Simulation time: 3 hr 39 min 50 sec) 
Heartbeat CPU 0 instructions: 77000000 cycles: 212627073 heartbeat IPC: 0.351531 cumulative IPC: 0.321388 (Simulation time: 3 hr 42 min 25 sec) 
Heartbeat CPU 0 instructions: 78000003 cycles: 215619683 heartbeat IPC: 0.334157 cumulative IPC: 0.321568 (Simulation time: 3 hr 44 min 51 sec) 
Heartbeat CPU 0 instructions: 79000001 cycles: 219266182 heartbeat IPC: 0.274235 cumulative IPC: 0.320766 (Simulation time: 3 hr 48 min 5 sec) 
Heartbeat CPU 0 instructions: 80000000 cycles: 222451377 heartbeat IPC: 0.313952 cumulative IPC: 0.320667 (Simulation time: 3 hr 51 min 3 sec) 
Heartbeat CPU 0 instructions: 81000003 cycles: 226454295 heartbeat IPC: 0.249819 cumulative IPC: 0.319391 (Simulation time: 3 hr 54 min 53 sec) 
Heartbeat CPU 0 instructions: 82000000 cycles: 228483274 heartbeat IPC: 0.492857 cumulative IPC: 0.32096 (Simulation time: 3 hr 57 min 11 sec) 
Heartbeat CPU 0 instructions: 83000001 cycles: 229937571 heartbeat IPC: 0.687618 cumulative IPC: 0.323322 (Simulation time: 3 hr 59 min 18 sec) 
Heartbeat CPU 0 instructions: 84000000 cycles: 233554346 heartbeat IPC: 0.276489 cumulative IPC: 0.322583 (Simulation time: 4 hr 2 min 25 sec) 
Heartbeat CPU 0 instructions: 85000002 cycles: 236354361 heartbeat IPC: 0.357142 cumulative IPC: 0.323 (Simulation time: 4 hr 4 min 51 sec) 
Heartbeat CPU 0 instructions: 86000000 cycles: 239424855 heartbeat IPC: 0.32568 cumulative IPC: 0.323035 (Simulation time: 4 hr 7 min 25 sec) 
Heartbeat CPU 0 instructions: 87000000 cycles: 243030313 heartbeat IPC: 0.277357 cumulative IPC: 0.322345 (Simulation time: 4 hr 10 min 48 sec) 
Heartbeat CPU 0 instructions: 88000000 cycles: 245727776 heartbeat IPC: 0.370719 cumulative IPC: 0.322886 (Simulation time: 4 hr 13 min 30 sec) 
Heartbeat CPU 0 instructions: 89000001 cycles: 250191752 heartbeat IPC: 0.224016 cumulative IPC: 0.321092 (Simulation time: 4 hr 17 min 13 sec) 
Heartbeat CPU 0 instructions: 90000002 cycles: 251701948 heartbeat IPC: 0.662166 cumulative IPC: 0.323173 (Simulation time: 4 hr 19 min 2 sec) 
Heartbeat CPU 0 instructions: 91000000 cycles: 253257540 heartbeat IPC: 0.642841 cumulative IPC: 0.325169 (Simulation time: 4 hr 20 min 52 sec) 
Heartbeat CPU 0 instructions: 92000000 cycles: 256823352 heartbeat IPC: 0.280441 cumulative IPC: 0.324538 (Simulation time: 4 hr 23 min 21 sec) 
Heartbeat CPU 0 instructions: 93000000 cycles: 259873330 heartbeat IPC: 0.327871 cumulative IPC: 0.324577 (Simulation time: 4 hr 25 min 13 sec) 
Heartbeat CPU 0 instructions: 94000001 cycles: 262795941 heartbeat IPC: 0.34216 cumulative IPC: 0.324776 (Simulation time: 4 hr 27 min 5 sec) 
Heartbeat CPU 0 instructions: 95000003 cycles: 266805013 heartbeat IPC: 0.249435 cumulative IPC: 0.323626 (Simulation time: 4 hr 29 min 46 sec) 
Heartbeat CPU 0 instructions: 96000000 cycles: 269111352 heartbeat IPC: 0.433586 cumulative IPC: 0.324583 (Simulation time: 4 hr 31 min 41 sec) 
Heartbeat CPU 0 instructions: 97000003 cycles: 273315082 heartbeat IPC: 0.237885 cumulative IPC: 0.323229 (Simulation time: 4 hr 33 min 58 sec) 
Heartbeat CPU 0 instructions: 98000003 cycles: 274796585 heartbeat IPC: 0.67499 cumulative IPC: 0.325155 (Simulation time: 4 hr 35 min 8 sec) 
Heartbeat CPU 0 instructions: 99000000 cycles: 277416435 heartbeat IPC: 0.3817 cumulative IPC: 0.325697 (Simulation time: 4 hr 36 min 38 sec) 
Heartbeat CPU 0 instructions: 100000000 cycles: 280432915 heartbeat IPC: 0.331512 cumulative IPC: 0.32576 (Simulation time: 4 hr 38 min 11 sec) 
Heartbeat CPU 0 instructions: 101000001 cycles: 283410243 heartbeat IPC: 0.335872 cumulative IPC: 0.325868 (Simulation time: 4 hr 39 min 29 sec) 
Heartbeat CPU 0 instructions: 102000000 cycles: 286559172 heartbeat IPC: 0.317568 cumulative IPC: 0.325776 (Simulation time: 4 hr 40 min 58 sec) 
Heartbeat CPU 0 instructions: 103000002 cycles: 290438045 heartbeat IPC: 0.257807 cumulative IPC: 0.324855 (Simulation time: 4 hr 42 min 59 sec) 
Heartbeat CPU 0 instructions: 104000000 cycles: 293288218 heartbeat IPC: 0.350855 cumulative IPC: 0.325111 (Simulation time: 4 hr 44 min 38 sec) 
Heartbeat CPU 0 instructions: 105000000 cycles: 296406595 heartbeat IPC: 0.32068 cumulative IPC: 0.325064 (Simulation time: 4 hr 46 min 1 sec) 
Heartbeat CPU 0 instructions: 106000001 cycles: 297867958 heartbeat IPC: 0.684293 cumulative IPC: 0.326851 (Simulation time: 4 hr 46 min 55 sec) 
Heartbeat CPU 0 instructions: 107000001 cycles: 301207681 heartbeat IPC: 0.299426 cumulative IPC: 0.326543 (Simulation time: 4 hr 48 min 11 sec) 
Heartbeat CPU 0 instructions: 108000000 cycles: 303837711 heartbeat IPC: 0.380223 cumulative IPC: 0.327014 (Simulation time: 4 hr 49 min 10 sec) 
Heartbeat CPU 0 instructions: 109000003 cycles: 306868440 heartbeat IPC: 0.329955 cumulative IPC: 0.327043 (Simulation time: 4 hr 50 min 13 sec) 
Heartbeat CPU 0 instructions: 110000001 cycles: 310409492 heartbeat IPC: 0.282401 cumulative IPC: 0.326527 (Simulation time: 4 hr 51 min 28 sec) 
Finished CPU 0 instructions: 100000003 cycles: 306253343 cummulative IPC: 0.326527 (Simulation time: 4 hr 51 min 28 sec) 

ChampSim completed all CPUs

Region of Interest Statistics

CPU 0 cummulative IPC: 0.326527 instructions: 100000003 cycles: 306253343
LLC TOTAL     ACCESS:    6644179  HIT:          0  MISS:    6644179
LLC LOAD      ACCESS:    1737965  HIT:          0  MISS:    1737965
LLC RFO       ACCESS:     658463  HIT:          0  MISS:     658463
LLC PREFETCH  ACCESS:    2687211  HIT:          0  MISS:    2687211
LLC WRITEBACK ACCESS:    1560540  HIT:          0  MISS:    1560540
