
*** ChampSim Multicore Out-of-Order Simulator ***

Warmup Instructions: 10000000
Simulation Instructions: 100000000
Configuration: 2
Number of CPUs: 1
LLC sets: 2048
LLC ways: 16
Off-chip DRAM Channels: 1 Width: 64-bit Data Rate: 1600 MT/s

CPU 0 runs /datasets/cs240c-wi22-a00-public/data/Assignment2-gz/sphinx3_883B.trace.gz
CPU 0 L1D next line prefetcher
CPU 0 L2C IP-based stride prefetcher
config 2, num_core 1, llc_sets 2048
Heartbeat CPU 0 instructions: 1000003 cycles: 414485 heartbeat IPC: 2.41264 cumulative IPC: 2.41264 (Simulation time: 0 hr 2 min 24 sec) 
Heartbeat CPU 0 instructions: 2000000 cycles: 824258 heartbeat IPC: 2.44037 cumulative IPC: 2.42642 (Simulation time: 0 hr 4 min 48 sec) 
Heartbeat CPU 0 instructions: 3000003 cycles: 1299028 heartbeat IPC: 2.10629 cumulative IPC: 2.30942 (Simulation time: 0 hr 6 min 54 sec) 
Heartbeat CPU 0 instructions: 4000000 cycles: 1637922 heartbeat IPC: 2.95077 cumulative IPC: 2.44212 (Simulation time: 0 hr 9 min 4 sec) 
Heartbeat CPU 0 instructions: 5000000 cycles: 1992670 heartbeat IPC: 2.8189 cumulative IPC: 2.5092 (Simulation time: 0 hr 11 min 17 sec) 
Heartbeat CPU 0 instructions: 6000003 cycles: 2407338 heartbeat IPC: 2.41158 cumulative IPC: 2.49238 (Simulation time: 0 hr 13 min 36 sec) 
Heartbeat CPU 0 instructions: 7000002 cycles: 2816378 heartbeat IPC: 2.44475 cumulative IPC: 2.48546 (Simulation time: 0 hr 15 min 50 sec) 
Heartbeat CPU 0 instructions: 8000000 cycles: 3292059 heartbeat IPC: 2.10225 cumulative IPC: 2.43009 (Simulation time: 0 hr 18 min 1 sec) 
Heartbeat CPU 0 instructions: 9000001 cycles: 3631073 heartbeat IPC: 2.94973 cumulative IPC: 2.47861 (Simulation time: 0 hr 20 min 5 sec) 
Heartbeat CPU 0 instructions: 10000000 cycles: 3985279 heartbeat IPC: 2.82321 cumulative IPC: 2.50923 (Simulation time: 0 hr 22 min 14 sec) 

Warmup complete CPU 0 instructions: 10000004 cycles: 3985280 (Simulation time: 0 hr 22 min 14 sec) 

Heartbeat CPU 0 instructions: 11000002 cycles: 5831980 heartbeat IPC: 0.541507 cumulative IPC: 0.541505 (Simulation time: 0 hr 24 min 53 sec) 
Heartbeat CPU 0 instructions: 12000000 cycles: 7642633 heartbeat IPC: 0.552286 cumulative IPC: 0.546842 (Simulation time: 0 hr 27 min 26 sec) 
Heartbeat CPU 0 instructions: 13000001 cycles: 9348004 heartbeat IPC: 0.586383 cumulative IPC: 0.559417 (Simulation time: 0 hr 29 min 51 sec) 
Heartbeat CPU 0 instructions: 14000002 cycles: 10337281 heartbeat IPC: 1.01084 cumulative IPC: 0.629723 (Simulation time: 0 hr 32 min 18 sec) 
Heartbeat CPU 0 instructions: 15000000 cycles: 11376497 heartbeat IPC: 0.962262 cumulative IPC: 0.676478 (Simulation time: 0 hr 34 min 44 sec) 
Heartbeat CPU 0 instructions: 16000000 cycles: 13221722 heartbeat IPC: 0.541939 cumulative IPC: 0.6496 (Simulation time: 0 hr 37 min 20 sec) 
Heartbeat CPU 0 instructions: 17000000 cycles: 15043411 heartbeat IPC: 0.548941 cumulative IPC: 0.633018 (Simulation time: 0 hr 39 min 51 sec) 
Heartbeat CPU 0 instructions: 18000002 cycles: 16850668 heartbeat IPC: 0.553326 cumulative IPC: 0.621823 (Simulation time: 0 hr 42 min 26 sec) 
Heartbeat CPU 0 instructions: 19000003 cycles: 17889330 heartbeat IPC: 0.962778 cumulative IPC: 0.647293 (Simulation time: 0 hr 44 min 51 sec) 
Heartbeat CPU 0 instructions: 20000000 cycles: 18794599 heartbeat IPC: 1.10464 cumulative IPC: 0.67525 (Simulation time: 0 hr 47 min 20 sec) 
Heartbeat CPU 0 instructions: 21000000 cycles: 20637100 heartbeat IPC: 0.542741 cumulative IPC: 0.660588 (Simulation time: 0 hr 49 min 53 sec) 
Heartbeat CPU 0 instructions: 22000003 cycles: 22485256 heartbeat IPC: 0.541081 cumulative IPC: 0.648649 (Simulation time: 0 hr 52 min 23 sec) 
Heartbeat CPU 0 instructions: 23000001 cycles: 24489767 heartbeat IPC: 0.498874 cumulative IPC: 0.634007 (Simulation time: 0 hr 54 min 54 sec) 
Heartbeat CPU 0 instructions: 24000000 cycles: 25703255 heartbeat IPC: 0.82407 cumulative IPC: 0.644627 (Simulation time: 0 hr 57 min 18 sec) 
Heartbeat CPU 0 instructions: 25000003 cycles: 26635246 heartbeat IPC: 1.07297 cumulative IPC: 0.662253 (Simulation time: 0 hr 59 min 41 sec) 
Heartbeat CPU 0 instructions: 26000001 cycles: 28076769 heartbeat IPC: 0.693709 cumulative IPC: 0.664135 (Simulation time: 1 hr 2 min 18 sec) 
Heartbeat CPU 0 instructions: 27000001 cycles: 29937663 heartbeat IPC: 0.537376 cumulative IPC: 0.655046 (Simulation time: 1 hr 4 min 47 sec) 
Heartbeat CPU 0 instructions: 28000000 cycles: 31857967 heartbeat IPC: 0.52075 cumulative IPC: 0.645793 (Simulation time: 1 hr 7 min 20 sec) 
Heartbeat CPU 0 instructions: 29000000 cycles: 33354368 heartbeat IPC: 0.66827 cumulative IPC: 0.646939 (Simulation time: 1 hr 9 min 44 sec) 
Heartbeat CPU 0 instructions: 30000002 cycles: 34296523 heartbeat IPC: 1.0614 cumulative IPC: 0.659821 (Simulation time: 1 hr 12 min 5 sec) 
Heartbeat CPU 0 instructions: 31000003 cycles: 35572347 heartbeat IPC: 0.783808 cumulative IPC: 0.664829 (Simulation time: 1 hr 14 min 33 sec) 
Heartbeat CPU 0 instructions: 32000000 cycles: 37427443 heartbeat IPC: 0.539054 cumulative IPC: 0.657852 (Simulation time: 1 hr 17 min 13 sec) 
Heartbeat CPU 0 instructions: 33000000 cycles: 39193262 heartbeat IPC: 0.566309 cumulative IPC: 0.653261 (Simulation time: 1 hr 19 min 40 sec) 
Heartbeat CPU 0 instructions: 34000000 cycles: 40906373 heartbeat IPC: 0.583733 cumulative IPC: 0.650035 (Simulation time: 1 hr 22 min 19 sec) 
Heartbeat CPU 0 instructions: 35000003 cycles: 41858143 heartbeat IPC: 1.05068 cumulative IPC: 0.660103 (Simulation time: 1 hr 24 min 37 sec) 
Heartbeat CPU 0 instructions: 36000000 cycles: 43077442 heartbeat IPC: 0.820141 cumulative IPC: 0.665095 (Simulation time: 1 hr 26 min 50 sec) 
Heartbeat CPU 0 instructions: 37000001 cycles: 44947377 heartbeat IPC: 0.534778 cumulative IPC: 0.659146 (Simulation time: 1 hr 29 min 17 sec) 
Heartbeat CPU 0 instructions: 38000000 cycles: 46719470 heartbeat IPC: 0.564304 cumulative IPC: 0.655213 (Simulation time: 1 hr 31 min 43 sec) 
Heartbeat CPU 0 instructions: 39000003 cycles: 48411383 heartbeat IPC: 0.591049 cumulative IPC: 0.652769 (Simulation time: 1 hr 34 min 5 sec) 
Heartbeat CPU 0 instructions: 40000000 cycles: 49359485 heartbeat IPC: 1.05474 cumulative IPC: 0.661169 (Simulation time: 1 hr 36 min 19 sec) 
Heartbeat CPU 0 instructions: 41000003 cycles: 50562053 heartbeat IPC: 0.831556 cumulative IPC: 0.665568 (Simulation time: 1 hr 38 min 47 sec) 
Heartbeat CPU 0 instructions: 42000000 cycles: 52442134 heartbeat IPC: 0.53189 cumulative IPC: 0.660381 (Simulation time: 1 hr 41 min 14 sec) 
Heartbeat CPU 0 instructions: 43000003 cycles: 54294230 heartbeat IPC: 0.53993 cumulative IPC: 0.655947 (Simulation time: 1 hr 43 min 50 sec) 
Heartbeat CPU 0 instructions: 44000000 cycles: 55847486 heartbeat IPC: 0.643807 cumulative IPC: 0.655583 (Simulation time: 1 hr 46 min 25 sec) 
Heartbeat CPU 0 instructions: 45000002 cycles: 56797047 heartbeat IPC: 1.05312 cumulative IPC: 0.662731 (Simulation time: 1 hr 48 min 47 sec) 
Heartbeat CPU 0 instructions: 46000001 cycles: 58036703 heartbeat IPC: 0.806675 cumulative IPC: 0.666032 (Simulation time: 1 hr 51 min 14 sec) 
Heartbeat CPU 0 instructions: 47000002 cycles: 59907949 heartbeat IPC: 0.534404 cumulative IPC: 0.661628 (Simulation time: 1 hr 53 min 39 sec) 
Heartbeat CPU 0 instructions: 48000000 cycles: 61853324 heartbeat IPC: 0.514039 cumulative IPC: 0.656666 (Simulation time: 1 hr 56 min 9 sec) 
Heartbeat CPU 0 instructions: 49000001 cycles: 63178925 heartbeat IPC: 0.754376 cumulative IPC: 0.658854 (Simulation time: 1 hr 58 min 30 sec) 
Heartbeat CPU 0 instructions: 50000000 cycles: 64121366 heartbeat IPC: 1.06107 cumulative IPC: 0.665158 (Simulation time: 2 hr 0 min 53 sec) 
Heartbeat CPU 0 instructions: 51000003 cycles: 65411785 heartbeat IPC: 0.774944 cumulative IPC: 0.667464 (Simulation time: 2 hr 3 min 24 sec) 
Heartbeat CPU 0 instructions: 52000000 cycles: 67322058 heartbeat IPC: 0.523484 cumulative IPC: 0.663122 (Simulation time: 2 hr 5 min 59 sec) 
Heartbeat CPU 0 instructions: 53000000 cycles: 69531863 heartbeat IPC: 0.452529 cumulative IPC: 0.656022 (Simulation time: 2 hr 8 min 43 sec) 
Heartbeat CPU 0 instructions: 54000003 cycles: 70897484 heartbeat IPC: 0.73227 cumulative IPC: 0.657578 (Simulation time: 2 hr 11 min 3 sec) 
Heartbeat CPU 0 instructions: 55000003 cycles: 71953703 heartbeat IPC: 0.946773 cumulative IPC: 0.662072 (Simulation time: 2 hr 13 min 26 sec) 
Heartbeat CPU 0 instructions: 56000000 cycles: 72906651 heartbeat IPC: 1.04937 cumulative IPC: 0.667427 (Simulation time: 2 hr 15 min 30 sec) 
Heartbeat CPU 0 instructions: 57000002 cycles: 74204291 heartbeat IPC: 0.770631 cumulative IPC: 0.669334 (Simulation time: 2 hr 17 min 50 sec) 
Heartbeat CPU 0 instructions: 58000001 cycles: 75440324 heartbeat IPC: 0.809039 cumulative IPC: 0.671751 (Simulation time: 2 hr 20 min 4 sec) 
Heartbeat CPU 0 instructions: 59000003 cycles: 76409564 heartbeat IPC: 1.03174 cumulative IPC: 0.676569 (Simulation time: 2 hr 22 min 26 sec) 
Heartbeat CPU 0 instructions: 60000000 cycles: 77387922 heartbeat IPC: 1.02212 cumulative IPC: 0.681174 (Simulation time: 2 hr 24 min 34 sec) 
Heartbeat CPU 0 instructions: 61000001 cycles: 78869087 heartbeat IPC: 0.675145 cumulative IPC: 0.681055 (Simulation time: 2 hr 27 min 0 sec) 
Heartbeat CPU 0 instructions: 62000001 cycles: 79878835 heartbeat IPC: 0.990346 cumulative IPC: 0.68517 (Simulation time: 2 hr 29 min 35 sec) 
Heartbeat CPU 0 instructions: 63000000 cycles: 80777044 heartbeat IPC: 1.11333 cumulative IPC: 0.690178 (Simulation time: 2 hr 31 min 58 sec) 
Heartbeat CPU 0 instructions: 64000000 cycles: 82349297 heartbeat IPC: 0.63603 cumulative IPC: 0.689092 (Simulation time: 2 hr 34 min 32 sec) 
Heartbeat CPU 0 instructions: 65000003 cycles: 83421210 heartbeat IPC: 0.932914 cumulative IPC: 0.692382 (Simulation time: 2 hr 36 min 58 sec) 
Heartbeat CPU 0 instructions: 66000002 cycles: 84355950 heartbeat IPC: 1.06982 cumulative IPC: 0.696772 (Simulation time: 2 hr 39 min 30 sec) 
Heartbeat CPU 0 instructions: 67000000 cycles: 85803406 heartbeat IPC: 0.690866 cumulative IPC: 0.696667 (Simulation time: 2 hr 42 min 8 sec) 
Heartbeat CPU 0 instructions: 68000000 cycles: 87720422 heartbeat IPC: 0.521644 cumulative IPC: 0.69266 (Simulation time: 2 hr 44 min 48 sec) 
Heartbeat CPU 0 instructions: 69000003 cycles: 88782459 heartbeat IPC: 0.94159 cumulative IPC: 0.695778 (Simulation time: 2 hr 47 min 19 sec) 
Heartbeat CPU 0 instructions: 70000000 cycles: 89735653 heartbeat IPC: 1.0491 cumulative IPC: 0.699705 (Simulation time: 2 hr 50 min 3 sec) 
Heartbeat CPU 0 instructions: 71000000 cycles: 91092894 heartbeat IPC: 0.736789 cumulative IPC: 0.700283 (Simulation time: 2 hr 52 min 28 sec) 
Heartbeat CPU 0 instructions: 72000000 cycles: 92917433 heartbeat IPC: 0.548084 cumulative IPC: 0.697161 (Simulation time: 2 hr 55 min 6 sec) 
Heartbeat CPU 0 instructions: 73000000 cycles: 93973316 heartbeat IPC: 0.947075 cumulative IPC: 0.700093 (Simulation time: 2 hr 57 min 30 sec) 
Heartbeat CPU 0 instructions: 74000000 cycles: 94910795 heartbeat IPC: 1.06669 cumulative IPC: 0.703873 (Simulation time: 3 hr 0 min 5 sec) 
Heartbeat CPU 0 instructions: 75000000 cycles: 96350061 heartbeat IPC: 0.694799 cumulative IPC: 0.703731 (Simulation time: 3 hr 2 min 46 sec) 
Heartbeat CPU 0 instructions: 76000000 cycles: 97972065 heartbeat IPC: 0.616521 cumulative IPC: 0.702226 (Simulation time: 3 hr 5 min 14 sec) 
Heartbeat CPU 0 instructions: 77000003 cycles: 99043338 heartbeat IPC: 0.933472 cumulative IPC: 0.704832 (Simulation time: 3 hr 7 min 51 sec) 
Heartbeat CPU 0 instructions: 78000000 cycles: 99971389 heartbeat IPC: 1.07752 cumulative IPC: 0.708436 (Simulation time: 3 hr 10 min 8 sec) 
Heartbeat CPU 0 instructions: 79000001 cycles: 101630492 heartbeat IPC: 0.602736 cumulative IPC: 0.70664 (Simulation time: 3 hr 12 min 41 sec) 
Heartbeat CPU 0 instructions: 80000000 cycles: 103087160 heartbeat IPC: 0.686498 cumulative IPC: 0.706344 (Simulation time: 3 hr 15 min 9 sec) 
Heartbeat CPU 0 instructions: 81000000 cycles: 104143060 heartbeat IPC: 0.947059 cumulative IPC: 0.708881 (Simulation time: 3 hr 17 min 40 sec) 
Heartbeat CPU 0 instructions: 82000000 cycles: 105045476 heartbeat IPC: 1.10814 cumulative IPC: 0.712447 (Simulation time: 3 hr 19 min 52 sec) 
Heartbeat CPU 0 instructions: 83000000 cycles: 106884145 heartbeat IPC: 0.543872 cumulative IPC: 0.709434 (Simulation time: 3 hr 22 min 28 sec) 
Heartbeat CPU 0 instructions: 84000000 cycles: 108048932 heartbeat IPC: 0.858526 cumulative IPC: 0.711103 (Simulation time: 3 hr 24 min 43 sec) 
Heartbeat CPU 0 instructions: 85000001 cycles: 109009927 heartbeat IPC: 1.04059 cumulative IPC: 0.714118 (Simulation time: 3 hr 26 min 57 sec) 
Heartbeat CPU 0 instructions: 86000001 cycles: 110247632 heartbeat IPC: 0.807947 cumulative IPC: 0.715211 (Simulation time: 3 hr 29 min 12 sec) 
Heartbeat CPU 0 instructions: 87000000 cycles: 111775221 heartbeat IPC: 0.654626 cumulative IPC: 0.714352 (Simulation time: 3 hr 31 min 33 sec) 
Heartbeat CPU 0 instructions: 88000000 cycles: 112824929 heartbeat IPC: 0.952646 cumulative IPC: 0.716651 (Simulation time: 3 hr 34 min 1 sec) 
Heartbeat CPU 0 instructions: 89000001 cycles: 113724349 heartbeat IPC: 1.11183 cumulative IPC: 0.719889 (Simulation time: 3 hr 36 min 21 sec) 
Heartbeat CPU 0 instructions: 90000000 cycles: 115399756 heartbeat IPC: 0.596869 cumulative IPC: 0.71804 (Simulation time: 3 hr 38 min 54 sec) 
Heartbeat CPU 0 instructions: 91000003 cycles: 116711966 heartbeat IPC: 0.762075 cumulative IPC: 0.718552 (Simulation time: 3 hr 41 min 10 sec) 
Heartbeat CPU 0 instructions: 92000000 cycles: 117810695 heartbeat IPC: 0.91014 cumulative IPC: 0.720401 (Simulation time: 3 hr 43 min 30 sec) 
Heartbeat CPU 0 instructions: 93000000 cycles: 118791923 heartbeat IPC: 1.01913 cumulative IPC: 0.722955 (Simulation time: 3 hr 45 min 45 sec) 
Heartbeat CPU 0 instructions: 94000002 cycles: 119703349 heartbeat IPC: 1.09718 cumulative IPC: 0.725902 (Simulation time: 3 hr 48 min 1 sec) 
Heartbeat CPU 0 instructions: 95000001 cycles: 121518552 heartbeat IPC: 0.550902 cumulative IPC: 0.723199 (Simulation time: 3 hr 50 min 41 sec) 
Heartbeat CPU 0 instructions: 96000000 cycles: 122585254 heartbeat IPC: 0.937468 cumulative IPC: 0.725127 (Simulation time: 3 hr 52 min 54 sec) 
Heartbeat CPU 0 instructions: 97000000 cycles: 123517065 heartbeat IPC: 1.07318 cumulative IPC: 0.72784 (Simulation time: 3 hr 55 min 5 sec) 
Heartbeat CPU 0 instructions: 98000003 cycles: 124988165 heartbeat IPC: 0.679765 cumulative IPC: 0.727255 (Simulation time: 3 hr 57 min 34 sec) 
Heartbeat CPU 0 instructions: 99000000 cycles: 126386646 heartbeat IPC: 0.715059 cumulative IPC: 0.727116 (Simulation time: 3 hr 59 min 53 sec) 
Heartbeat CPU 0 instructions: 100000000 cycles: 127374875 heartbeat IPC: 1.01191 cumulative IPC: 0.729397 (Simulation time: 4 hr 2 min 12 sec) 
Heartbeat CPU 0 instructions: 101000000 cycles: 128288850 heartbeat IPC: 1.09412 cumulative IPC: 0.732079 (Simulation time: 4 hr 4 min 21 sec) 
Heartbeat CPU 0 instructions: 102000003 cycles: 130185840 heartbeat IPC: 0.527152 cumulative IPC: 0.728998 (Simulation time: 4 hr 6 min 49 sec) 
Heartbeat CPU 0 instructions: 103000001 cycles: 131412660 heartbeat IPC: 0.815114 cumulative IPC: 0.729827 (Simulation time: 4 hr 9 min 4 sec) 
Heartbeat CPU 0 instructions: 104000000 cycles: 132366548 heartbeat IPC: 1.04834 cumulative IPC: 0.732194 (Simulation time: 4 hr 11 min 18 sec) 
Heartbeat CPU 0 instructions: 105000002 cycles: 133671231 heartbeat IPC: 0.766471 cumulative IPC: 0.732539 (Simulation time: 4 hr 13 min 37 sec) 
Heartbeat CPU 0 instructions: 106000003 cycles: 135579227 heartbeat IPC: 0.524111 cumulative IPC: 0.729517 (Simulation time: 4 hr 16 min 0 sec) 
Heartbeat CPU 0 instructions: 107000001 cycles: 136665501 heartbeat IPC: 0.920576 cumulative IPC: 0.731081 (Simulation time: 4 hr 18 min 29 sec) 
Heartbeat CPU 0 instructions: 108000000 cycles: 137609020 heartbeat IPC: 1.05986 cumulative IPC: 0.733403 (Simulation time: 4 hr 20 min 44 sec) 
Heartbeat CPU 0 instructions: 109000001 cycles: 139017245 heartbeat IPC: 0.710114 cumulative IPC: 0.73316 (Simulation time: 4 hr 22 min 54 sec) 
Heartbeat CPU 0 instructions: 110000000 cycles: 140809269 heartbeat IPC: 0.558028 cumulative IPC: 0.730866 (Simulation time: 4 hr 25 min 2 sec) 
Finished CPU 0 instructions: 100000000 cycles: 136823990 cummulative IPC: 0.730866 (Simulation time: 4 hr 25 min 2 sec) 

ChampSim completed all CPUs

Region of Interest Statistics

CPU 0 cummulative IPC: 0.730866 instructions: 100000000 cycles: 136823990
LLC TOTAL     ACCESS:    1795138  HIT:          0  MISS:    1795138
LLC LOAD      ACCESS:     314263  HIT:          0  MISS:     314263
LLC RFO       ACCESS:     100422  HIT:          0  MISS:     100422
LLC PREFETCH  ACCESS:    1239073  HIT:          0  MISS:    1239073
LLC WRITEBACK ACCESS:     141380  HIT:          0  MISS:     141380
