
*** ChampSim Multicore Out-of-Order Simulator ***

Warmup Instructions: 10000000
Simulation Instructions: 100000000
Configuration: 2
Number of CPUs: 1
LLC sets: 2048
LLC ways: 16
Off-chip DRAM Channels: 1 Width: 64-bit Data Rate: 1600 MT/s

CPU 0 runs /datasets/cs240c-wi22-a00-public/data/Assignment2-gz/astar_313B.trace.gz
CPU 0 L1D next line prefetcher
CPU 0 L2C IP-based stride prefetcher
config 2, num_core 1, llc_sets 2048
Heartbeat CPU 0 instructions: 1000001 cycles: 676952 heartbeat IPC: 1.47721 cumulative IPC: 1.47721 (Simulation time: 0 hr 3 min 8 sec) 
Heartbeat CPU 0 instructions: 2000003 cycles: 1264670 heartbeat IPC: 1.7015 cumulative IPC: 1.58144 (Simulation time: 0 hr 6 min 8 sec) 
Heartbeat CPU 0 instructions: 3000003 cycles: 1940418 heartbeat IPC: 1.47984 cumulative IPC: 1.54606 (Simulation time: 0 hr 9 min 10 sec) 
Heartbeat CPU 0 instructions: 4000000 cycles: 2616143 heartbeat IPC: 1.47989 cumulative IPC: 1.52897 (Simulation time: 0 hr 11 min 58 sec) 
Heartbeat CPU 0 instructions: 5000002 cycles: 3292095 heartbeat IPC: 1.4794 cumulative IPC: 1.51879 (Simulation time: 0 hr 14 min 50 sec) 
Heartbeat CPU 0 instructions: 6000001 cycles: 3880067 heartbeat IPC: 1.70076 cumulative IPC: 1.54637 (Simulation time: 0 hr 17 min 44 sec) 
Heartbeat CPU 0 instructions: 7000001 cycles: 4449674 heartbeat IPC: 1.7556 cumulative IPC: 1.57315 (Simulation time: 0 hr 20 min 36 sec) 
Heartbeat CPU 0 instructions: 8000000 cycles: 5002056 heartbeat IPC: 1.81034 cumulative IPC: 1.59934 (Simulation time: 0 hr 23 min 27 sec) 
Heartbeat CPU 0 instructions: 9000001 cycles: 5564466 heartbeat IPC: 1.77806 cumulative IPC: 1.61741 (Simulation time: 0 hr 26 min 15 sec) 
Heartbeat CPU 0 instructions: 10000002 cycles: 6240248 heartbeat IPC: 1.47977 cumulative IPC: 1.6025 (Simulation time: 0 hr 29 min 2 sec) 

Warmup complete CPU 0 instructions: 10000002 cycles: 6240248 (Simulation time: 0 hr 29 min 2 sec) 

Heartbeat CPU 0 instructions: 11000000 cycles: 13676629 heartbeat IPC: 0.134474 cumulative IPC: 0.134474 (Simulation time: 0 hr 32 min 24 sec) 
Heartbeat CPU 0 instructions: 12000000 cycles: 21480218 heartbeat IPC: 0.128146 cumulative IPC: 0.131234 (Simulation time: 0 hr 35 min 31 sec) 
Heartbeat CPU 0 instructions: 13000003 cycles: 31097645 heartbeat IPC: 0.103978 cumulative IPC: 0.120688 (Simulation time: 0 hr 39 min 15 sec) 
Heartbeat CPU 0 instructions: 14000002 cycles: 38213263 heartbeat IPC: 0.140536 cumulative IPC: 0.125106 (Simulation time: 0 hr 42 min 19 sec) 
Heartbeat CPU 0 instructions: 15000000 cycles: 45553941 heartbeat IPC: 0.136227 cumulative IPC: 0.127182 (Simulation time: 0 hr 45 min 20 sec) 
Heartbeat CPU 0 instructions: 16000000 cycles: 52547116 heartbeat IPC: 0.142997 cumulative IPC: 0.12957 (Simulation time: 0 hr 48 min 25 sec) 
Heartbeat CPU 0 instructions: 17000001 cycles: 59281632 heartbeat IPC: 0.148489 cumulative IPC: 0.131972 (Simulation time: 0 hr 51 min 31 sec) 
Heartbeat CPU 0 instructions: 18000000 cycles: 69118600 heartbeat IPC: 0.101657 cumulative IPC: 0.12723 (Simulation time: 0 hr 55 min 18 sec) 
Heartbeat CPU 0 instructions: 19000000 cycles: 76058987 heartbeat IPC: 0.144084 cumulative IPC: 0.128905 (Simulation time: 0 hr 58 min 23 sec) 
Heartbeat CPU 0 instructions: 20000000 cycles: 83415799 heartbeat IPC: 0.135928 cumulative IPC: 0.129575 (Simulation time: 1 hr 1 min 24 sec) 
Heartbeat CPU 0 instructions: 21000003 cycles: 93069851 heartbeat IPC: 0.103584 cumulative IPC: 0.126685 (Simulation time: 1 hr 5 min 3 sec) 
Heartbeat CPU 0 instructions: 22000002 cycles: 100874721 heartbeat IPC: 0.128125 cumulative IPC: 0.126804 (Simulation time: 1 hr 8 min 30 sec) 
Heartbeat CPU 0 instructions: 23000002 cycles: 107573756 heartbeat IPC: 0.149275 cumulative IPC: 0.128289 (Simulation time: 1 hr 11 min 37 sec) 
Heartbeat CPU 0 instructions: 24000000 cycles: 115205550 heartbeat IPC: 0.131031 cumulative IPC: 0.128481 (Simulation time: 1 hr 14 min 56 sec) 
Heartbeat CPU 0 instructions: 25000001 cycles: 124434429 heartbeat IPC: 0.108356 cumulative IPC: 0.12691 (Simulation time: 1 hr 18 min 28 sec) 
Heartbeat CPU 0 instructions: 26000002 cycles: 132402538 heartbeat IPC: 0.1255 cumulative IPC: 0.126821 (Simulation time: 1 hr 21 min 50 sec) 
Heartbeat CPU 0 instructions: 27000003 cycles: 143327093 heartbeat IPC: 0.091537 cumulative IPC: 0.124009 (Simulation time: 1 hr 25 min 53 sec) 
Heartbeat CPU 0 instructions: 28000000 cycles: 150569135 heartbeat IPC: 0.138082 cumulative IPC: 0.124715 (Simulation time: 1 hr 29 min 32 sec) 
Heartbeat CPU 0 instructions: 29000001 cycles: 160324594 heartbeat IPC: 0.102507 cumulative IPC: 0.123309 (Simulation time: 1 hr 33 min 59 sec) 
Heartbeat CPU 0 instructions: 30000001 cycles: 167186623 heartbeat IPC: 0.145729 cumulative IPC: 0.124265 (Simulation time: 1 hr 37 min 32 sec) 
Heartbeat CPU 0 instructions: 31000002 cycles: 174215586 heartbeat IPC: 0.142269 cumulative IPC: 0.125018 (Simulation time: 1 hr 41 min 0 sec) 
Heartbeat CPU 0 instructions: 32000000 cycles: 180798636 heartbeat IPC: 0.151905 cumulative IPC: 0.126032 (Simulation time: 1 hr 44 min 23 sec) 
Heartbeat CPU 0 instructions: 33000000 cycles: 187092393 heartbeat IPC: 0.158888 cumulative IPC: 0.127176 (Simulation time: 1 hr 47 min 43 sec) 
Heartbeat CPU 0 instructions: 34000000 cycles: 196814428 heartbeat IPC: 0.102859 cumulative IPC: 0.125935 (Simulation time: 1 hr 51 min 41 sec) 
Heartbeat CPU 0 instructions: 35000000 cycles: 203790444 heartbeat IPC: 0.143348 cumulative IPC: 0.12655 (Simulation time: 1 hr 54 min 52 sec) 
Heartbeat CPU 0 instructions: 36000000 cycles: 211062580 heartbeat IPC: 0.137511 cumulative IPC: 0.126939 (Simulation time: 1 hr 58 min 9 sec) 
Heartbeat CPU 0 instructions: 37000002 cycles: 220991709 heartbeat IPC: 0.100714 cumulative IPC: 0.125727 (Simulation time: 2 hr 2 min 0 sec) 
Heartbeat CPU 0 instructions: 38000000 cycles: 227775787 heartbeat IPC: 0.147404 cumulative IPC: 0.126391 (Simulation time: 2 hr 5 min 17 sec) 
Heartbeat CPU 0 instructions: 39000001 cycles: 237696078 heartbeat IPC: 0.100804 cumulative IPC: 0.125294 (Simulation time: 2 hr 9 min 4 sec) 
Heartbeat CPU 0 instructions: 40000000 cycles: 247546098 heartbeat IPC: 0.101523 cumulative IPC: 0.124324 (Simulation time: 2 hr 12 min 54 sec) 
Heartbeat CPU 0 instructions: 41000001 cycles: 254737856 heartbeat IPC: 0.139048 cumulative IPC: 0.12475 (Simulation time: 2 hr 15 min 55 sec) 
Heartbeat CPU 0 instructions: 42000003 cycles: 263374492 heartbeat IPC: 0.115786 cumulative IPC: 0.124449 (Simulation time: 2 hr 19 min 19 sec) 
Heartbeat CPU 0 instructions: 43000000 cycles: 274111213 heartbeat IPC: 0.093138 cumulative IPC: 0.123194 (Simulation time: 2 hr 23 min 4 sec) 
Heartbeat CPU 0 instructions: 44000000 cycles: 280902532 heartbeat IPC: 0.147247 cumulative IPC: 0.123788 (Simulation time: 2 hr 26 min 6 sec) 
Heartbeat CPU 0 instructions: 45000000 cycles: 288185288 heartbeat IPC: 0.137311 cumulative IPC: 0.124138 (Simulation time: 2 hr 29 min 12 sec) 
Heartbeat CPU 0 instructions: 46000002 cycles: 295627603 heartbeat IPC: 0.134367 cumulative IPC: 0.124401 (Simulation time: 2 hr 32 min 3 sec) 
Heartbeat CPU 0 instructions: 47000000 cycles: 302993851 heartbeat IPC: 0.135754 cumulative IPC: 0.124683 (Simulation time: 2 hr 35 min 27 sec) 
Heartbeat CPU 0 instructions: 48000000 cycles: 312686890 heartbeat IPC: 0.103167 cumulative IPC: 0.124002 (Simulation time: 2 hr 39 min 40 sec) 
Heartbeat CPU 0 instructions: 49000000 cycles: 319199889 heartbeat IPC: 0.153539 cumulative IPC: 0.124617 (Simulation time: 2 hr 42 min 53 sec) 
Heartbeat CPU 0 instructions: 50000000 cycles: 326000373 heartbeat IPC: 0.147048 cumulative IPC: 0.125094 (Simulation time: 2 hr 46 min 1 sec) 
Heartbeat CPU 0 instructions: 51000000 cycles: 333719190 heartbeat IPC: 0.129554 cumulative IPC: 0.125199 (Simulation time: 2 hr 49 min 28 sec) 
Heartbeat CPU 0 instructions: 52000000 cycles: 343013889 heartbeat IPC: 0.107588 cumulative IPC: 0.124713 (Simulation time: 2 hr 53 min 31 sec) 
Heartbeat CPU 0 instructions: 53000000 cycles: 350950643 heartbeat IPC: 0.125996 cumulative IPC: 0.124742 (Simulation time: 2 hr 56 min 54 sec) 
Heartbeat CPU 0 instructions: 54000000 cycles: 360326235 heartbeat IPC: 0.10666 cumulative IPC: 0.124264 (Simulation time: 3 hr 0 min 22 sec) 
Heartbeat CPU 0 instructions: 55000001 cycles: 370039158 heartbeat IPC: 0.102956 cumulative IPC: 0.123695 (Simulation time: 3 hr 3 min 56 sec) 
Heartbeat CPU 0 instructions: 56000000 cycles: 381039114 heartbeat IPC: 0.0909094 cumulative IPC: 0.122732 (Simulation time: 3 hr 8 min 12 sec) 
Heartbeat CPU 0 instructions: 57000000 cycles: 387925289 heartbeat IPC: 0.145219 cumulative IPC: 0.123138 (Simulation time: 3 hr 11 min 9 sec) 
Heartbeat CPU 0 instructions: 58000001 cycles: 395259456 heartbeat IPC: 0.136348 cumulative IPC: 0.123387 (Simulation time: 3 hr 14 min 19 sec) 
Heartbeat CPU 0 instructions: 59000002 cycles: 404727743 heartbeat IPC: 0.105616 cumulative IPC: 0.122965 (Simulation time: 3 hr 18 min 5 sec) 
Heartbeat CPU 0 instructions: 60000000 cycles: 412894822 heartbeat IPC: 0.122443 cumulative IPC: 0.122954 (Simulation time: 3 hr 22 min 14 sec) 
Heartbeat CPU 0 instructions: 61000001 cycles: 419946488 heartbeat IPC: 0.141811 cumulative IPC: 0.123276 (Simulation time: 3 hr 25 min 29 sec) 
Heartbeat CPU 0 instructions: 62000001 cycles: 427241624 heartbeat IPC: 0.137078 cumulative IPC: 0.123515 (Simulation time: 3 hr 28 min 45 sec) 
Heartbeat CPU 0 instructions: 63000000 cycles: 434725179 heartbeat IPC: 0.133626 cumulative IPC: 0.123692 (Simulation time: 3 hr 32 min 7 sec) 
Heartbeat CPU 0 instructions: 64000000 cycles: 444374196 heartbeat IPC: 0.103638 cumulative IPC: 0.12325 (Simulation time: 3 hr 36 min 36 sec) 
Heartbeat CPU 0 instructions: 65000000 cycles: 451724924 heartbeat IPC: 0.136041 cumulative IPC: 0.123461 (Simulation time: 3 hr 40 min 42 sec) 
Heartbeat CPU 0 instructions: 66000001 cycles: 459089322 heartbeat IPC: 0.135789 cumulative IPC: 0.123662 (Simulation time: 3 hr 44 min 38 sec) 
Heartbeat CPU 0 instructions: 67000000 cycles: 466811790 heartbeat IPC: 0.129492 cumulative IPC: 0.123759 (Simulation time: 3 hr 48 min 44 sec) 
Heartbeat CPU 0 instructions: 68000000 cycles: 474630986 heartbeat IPC: 0.12789 cumulative IPC: 0.123828 (Simulation time: 3 hr 52 min 30 sec) 
Heartbeat CPU 0 instructions: 69000000 cycles: 487574140 heartbeat IPC: 0.0772609 cumulative IPC: 0.122576 (Simulation time: 3 hr 57 min 57 sec) 
Heartbeat CPU 0 instructions: 70000000 cycles: 494840548 heartbeat IPC: 0.13762 cumulative IPC: 0.1228 (Simulation time: 4 hr 1 min 40 sec) 
Heartbeat CPU 0 instructions: 71000002 cycles: 502415005 heartbeat IPC: 0.132023 cumulative IPC: 0.122941 (Simulation time: 4 hr 5 min 24 sec) 
Heartbeat CPU 0 instructions: 72000000 cycles: 510232411 heartbeat IPC: 0.127919 cumulative IPC: 0.123018 (Simulation time: 4 hr 9 min 11 sec) 
Heartbeat CPU 0 instructions: 73000003 cycles: 517945140 heartbeat IPC: 0.129656 cumulative IPC: 0.123118 (Simulation time: 4 hr 12 min 54 sec) 
Heartbeat CPU 0 instructions: 74000003 cycles: 527458899 heartbeat IPC: 0.105111 cumulative IPC: 0.122789 (Simulation time: 4 hr 17 min 6 sec) 
Heartbeat CPU 0 instructions: 75000000 cycles: 535157600 heartbeat IPC: 0.129892 cumulative IPC: 0.122893 (Simulation time: 4 hr 21 min 6 sec) 
Heartbeat CPU 0 instructions: 76000000 cycles: 541908844 heartbeat IPC: 0.148121 cumulative IPC: 0.123211 (Simulation time: 4 hr 24 min 29 sec) 
Heartbeat CPU 0 instructions: 77000000 cycles: 548810792 heartbeat IPC: 0.144887 cumulative IPC: 0.123486 (Simulation time: 4 hr 27 min 43 sec) 
Heartbeat CPU 0 instructions: 78000001 cycles: 555514398 heartbeat IPC: 0.149174 cumulative IPC: 0.1238 (Simulation time: 4 hr 30 min 44 sec) 
Heartbeat CPU 0 instructions: 79000000 cycles: 565118585 heartbeat IPC: 0.104121 cumulative IPC: 0.123462 (Simulation time: 4 hr 33 min 59 sec) 
Heartbeat CPU 0 instructions: 80000000 cycles: 571837980 heartbeat IPC: 0.148823 cumulative IPC: 0.123763 (Simulation time: 4 hr 36 min 23 sec) 
Heartbeat CPU 0 instructions: 81000003 cycles: 580233430 heartbeat IPC: 0.119112 cumulative IPC: 0.123695 (Simulation time: 4 hr 38 min 52 sec) 
Heartbeat CPU 0 instructions: 82000001 cycles: 588762474 heartbeat IPC: 0.117246 cumulative IPC: 0.1236 (Simulation time: 4 hr 41 min 29 sec) 
Heartbeat CPU 0 instructions: 83000002 cycles: 595558174 heartbeat IPC: 0.147152 cumulative IPC: 0.123872 (Simulation time: 4 hr 43 min 36 sec) 
Heartbeat CPU 0 instructions: 84000000 cycles: 602670266 heartbeat IPC: 0.140605 cumulative IPC: 0.124072 (Simulation time: 4 hr 45 min 35 sec) 
Heartbeat CPU 0 instructions: 85000000 cycles: 610521900 heartbeat IPC: 0.127362 cumulative IPC: 0.124114 (Simulation time: 4 hr 47 min 32 sec) 
Heartbeat CPU 0 instructions: 86000001 cycles: 619784942 heartbeat IPC: 0.107956 cumulative IPC: 0.12387 (Simulation time: 4 hr 49 min 24 sec) 
Heartbeat CPU 0 instructions: 87000000 cycles: 626274199 heartbeat IPC: 0.154101 cumulative IPC: 0.124187 (Simulation time: 4 hr 51 min 0 sec) 
Heartbeat CPU 0 instructions: 88000000 cycles: 633049835 heartbeat IPC: 0.147588 cumulative IPC: 0.12444 (Simulation time: 4 hr 52 min 28 sec) 
Heartbeat CPU 0 instructions: 89000002 cycles: 640130776 heartbeat IPC: 0.141224 cumulative IPC: 0.124627 (Simulation time: 4 hr 53 min 40 sec) 
Heartbeat CPU 0 instructions: 90000002 cycles: 647027799 heartbeat IPC: 0.14499 cumulative IPC: 0.124846 (Simulation time: 4 hr 54 min 52 sec) 
Heartbeat CPU 0 instructions: 91000001 cycles: 656886733 heartbeat IPC: 0.101431 cumulative IPC: 0.124492 (Simulation time: 4 hr 56 min 6 sec) 
Heartbeat CPU 0 instructions: 92000000 cycles: 664608725 heartbeat IPC: 0.1295 cumulative IPC: 0.12455 (Simulation time: 4 hr 56 min 56 sec) 
Heartbeat CPU 0 instructions: 93000003 cycles: 673119100 heartbeat IPC: 0.117504 cumulative IPC: 0.12446 (Simulation time: 4 hr 57 min 41 sec) 
Heartbeat CPU 0 instructions: 94000000 cycles: 682139217 heartbeat IPC: 0.110863 cumulative IPC: 0.124279 (Simulation time: 4 hr 58 min 26 sec) 
Heartbeat CPU 0 instructions: 95000000 cycles: 689316942 heartbeat IPC: 0.13932 cumulative IPC: 0.124437 (Simulation time: 4 hr 59 min 5 sec) 
Heartbeat CPU 0 instructions: 96000000 cycles: 699155204 heartbeat IPC: 0.101644 cumulative IPC: 0.124113 (Simulation time: 4 hr 59 min 45 sec) 
Heartbeat CPU 0 instructions: 97000000 cycles: 706836003 heartbeat IPC: 0.130195 cumulative IPC: 0.12418 (Simulation time: 5 hr 0 min 14 sec) 
Heartbeat CPU 0 instructions: 98000003 cycles: 716076963 heartbeat IPC: 0.108214 cumulative IPC: 0.123972 (Simulation time: 5 hr 0 min 41 sec) 
Heartbeat CPU 0 instructions: 99000001 cycles: 725618269 heartbeat IPC: 0.104807 cumulative IPC: 0.123718 (Simulation time: 5 hr 1 min 9 sec) 
Heartbeat CPU 0 instructions: 100000000 cycles: 734308399 heartbeat IPC: 0.115073 cumulative IPC: 0.123615 (Simulation time: 5 hr 1 min 33 sec) 
Heartbeat CPU 0 instructions: 101000000 cycles: 744396543 heartbeat IPC: 0.0991263 cumulative IPC: 0.12328 (Simulation time: 5 hr 1 min 59 sec) 
Heartbeat CPU 0 instructions: 102000001 cycles: 751218398 heartbeat IPC: 0.146588 cumulative IPC: 0.123494 (Simulation time: 5 hr 2 min 16 sec) 
Heartbeat CPU 0 instructions: 103000000 cycles: 758340524 heartbeat IPC: 0.140407 cumulative IPC: 0.123654 (Simulation time: 5 hr 2 min 34 sec) 
Heartbeat CPU 0 instructions: 104000000 cycles: 765197107 heartbeat IPC: 0.145845 cumulative IPC: 0.123854 (Simulation time: 5 hr 2 min 49 sec) 
Heartbeat CPU 0 instructions: 105000000 cycles: 771541253 heartbeat IPC: 0.157626 cumulative IPC: 0.124134 (Simulation time: 5 hr 3 min 4 sec) 
Heartbeat CPU 0 instructions: 106000000 cycles: 781246271 heartbeat IPC: 0.103039 cumulative IPC: 0.12387 (Simulation time: 5 hr 3 min 20 sec) 
Heartbeat CPU 0 instructions: 107000002 cycles: 788541278 heartbeat IPC: 0.13708 cumulative IPC: 0.123993 (Simulation time: 5 hr 3 min 33 sec) 
Heartbeat CPU 0 instructions: 108000000 cycles: 798660296 heartbeat IPC: 0.0988236 cumulative IPC: 0.123672 (Simulation time: 5 hr 3 min 48 sec) 
Heartbeat CPU 0 instructions: 109000003 cycles: 805553254 heartbeat IPC: 0.145076 cumulative IPC: 0.123856 (Simulation time: 5 hr 4 min 2 sec) 
Heartbeat CPU 0 instructions: 110000003 cycles: 812278627 heartbeat IPC: 0.148691 cumulative IPC: 0.124064 (Simulation time: 5 hr 4 min 14 sec) 
Finished CPU 0 instructions: 100000001 cycles: 806038379 cummulative IPC: 0.124064 (Simulation time: 5 hr 4 min 14 sec) 

ChampSim completed all CPUs

Region of Interest Statistics

CPU 0 cummulative IPC: 0.124064 instructions: 100000001 cycles: 806038379
LLC TOTAL     ACCESS:    8773720  HIT:          0  MISS:    8773720
LLC LOAD      ACCESS:    1907917  HIT:          0  MISS:    1907917
LLC RFO       ACCESS:    1828634  HIT:          0  MISS:    1828634
LLC PREFETCH  ACCESS:    2274380  HIT:          0  MISS:    2274380
LLC WRITEBACK ACCESS:    2762789  HIT:          0  MISS:    2762789
