
*** ChampSim Multicore Out-of-Order Simulator ***

Warmup Instructions: 10000000
Simulation Instructions: 100000000
Configuration: 2
Number of CPUs: 1
LLC sets: 2048
LLC ways: 16
Off-chip DRAM Channels: 1 Width: 64-bit Data Rate: 1600 MT/s

CPU 0 runs /datasets/cs240c-wi22-a00-public/data/Assignment2-gz/wrf_1650B.trace.gz
CPU 0 L1D next line prefetcher
CPU 0 L2C IP-based stride prefetcher
config 2, num_core 1, llc_sets 2048
Heartbeat CPU 0 instructions: 1000000 cycles: 514299 heartbeat IPC: 1.94439 cumulative IPC: 1.94439 (Simulation time: 0 hr 2 min 37 sec) 
Heartbeat CPU 0 instructions: 2000000 cycles: 1028473 heartbeat IPC: 1.94487 cumulative IPC: 1.94463 (Simulation time: 0 hr 4 min 56 sec) 
Heartbeat CPU 0 instructions: 3000001 cycles: 1546184 heartbeat IPC: 1.93158 cumulative IPC: 1.94026 (Simulation time: 0 hr 7 min 21 sec) 
Heartbeat CPU 0 instructions: 4000000 cycles: 2063940 heartbeat IPC: 1.93141 cumulative IPC: 1.93804 (Simulation time: 0 hr 9 min 47 sec) 
Heartbeat CPU 0 instructions: 5000001 cycles: 2581687 heartbeat IPC: 1.93145 cumulative IPC: 1.93672 (Simulation time: 0 hr 12 min 6 sec) 
Heartbeat CPU 0 instructions: 6000003 cycles: 3099505 heartbeat IPC: 1.93118 cumulative IPC: 1.93579 (Simulation time: 0 hr 14 min 29 sec) 
Heartbeat CPU 0 instructions: 7000000 cycles: 3617214 heartbeat IPC: 1.93158 cumulative IPC: 1.93519 (Simulation time: 0 hr 17 min 2 sec) 
Heartbeat CPU 0 instructions: 8000000 cycles: 4135023 heartbeat IPC: 1.93121 cumulative IPC: 1.93469 (Simulation time: 0 hr 19 min 28 sec) 
Heartbeat CPU 0 instructions: 9000001 cycles: 4649336 heartbeat IPC: 1.94434 cumulative IPC: 1.93576 (Simulation time: 0 hr 21 min 56 sec) 
Heartbeat CPU 0 instructions: 10000001 cycles: 5163453 heartbeat IPC: 1.94508 cumulative IPC: 1.93669 (Simulation time: 0 hr 24 min 26 sec) 

Warmup complete CPU 0 instructions: 10000001 cycles: 5163453 (Simulation time: 0 hr 24 min 26 sec) 

Heartbeat CPU 0 instructions: 11000000 cycles: 6646726 heartbeat IPC: 0.674184 cumulative IPC: 0.674184 (Simulation time: 0 hr 27 min 30 sec) 
Heartbeat CPU 0 instructions: 12000000 cycles: 8135785 heartbeat IPC: 0.671565 cumulative IPC: 0.672872 (Simulation time: 0 hr 30 min 25 sec) 
Heartbeat CPU 0 instructions: 13000002 cycles: 9629779 heartbeat IPC: 0.669348 cumulative IPC: 0.671693 (Simulation time: 0 hr 33 min 32 sec) 
Heartbeat CPU 0 instructions: 14000002 cycles: 11124071 heartbeat IPC: 0.669213 cumulative IPC: 0.671072 (Simulation time: 0 hr 36 min 29 sec) 
Heartbeat CPU 0 instructions: 15000001 cycles: 12618892 heartbeat IPC: 0.668976 cumulative IPC: 0.670651 (Simulation time: 0 hr 39 min 32 sec) 
Heartbeat CPU 0 instructions: 16000000 cycles: 14113325 heartbeat IPC: 0.669149 cumulative IPC: 0.670401 (Simulation time: 0 hr 42 min 23 sec) 
Heartbeat CPU 0 instructions: 17000000 cycles: 15607685 heartbeat IPC: 0.669183 cumulative IPC: 0.670226 (Simulation time: 0 hr 45 min 13 sec) 
Heartbeat CPU 0 instructions: 18000001 cycles: 17095612 heartbeat IPC: 0.672077 cumulative IPC: 0.670457 (Simulation time: 0 hr 48 min 7 sec) 
Heartbeat CPU 0 instructions: 19000003 cycles: 18577756 heartbeat IPC: 0.6747 cumulative IPC: 0.670926 (Simulation time: 0 hr 51 min 5 sec) 
Heartbeat CPU 0 instructions: 20000000 cycles: 20061031 heartbeat IPC: 0.674182 cumulative IPC: 0.67125 (Simulation time: 0 hr 54 min 0 sec) 
Heartbeat CPU 0 instructions: 21000000 cycles: 21544956 heartbeat IPC: 0.673889 cumulative IPC: 0.671489 (Simulation time: 0 hr 56 min 56 sec) 
Heartbeat CPU 0 instructions: 22000000 cycles: 23038849 heartbeat IPC: 0.669392 cumulative IPC: 0.671314 (Simulation time: 1 hr 0 min 13 sec) 
Heartbeat CPU 0 instructions: 23000003 cycles: 24534271 heartbeat IPC: 0.66871 cumulative IPC: 0.671113 (Simulation time: 1 hr 3 min 15 sec) 
Heartbeat CPU 0 instructions: 24000000 cycles: 26027881 heartbeat IPC: 0.669517 cumulative IPC: 0.670998 (Simulation time: 1 hr 6 min 22 sec) 
Heartbeat CPU 0 instructions: 25000000 cycles: 27522800 heartbeat IPC: 0.668933 cumulative IPC: 0.67086 (Simulation time: 1 hr 9 min 18 sec) 
Heartbeat CPU 0 instructions: 26000001 cycles: 29017556 heartbeat IPC: 0.669006 cumulative IPC: 0.670744 (Simulation time: 1 hr 12 min 34 sec) 
Heartbeat CPU 0 instructions: 27000003 cycles: 30510828 heartbeat IPC: 0.669672 cumulative IPC: 0.670681 (Simulation time: 1 hr 15 min 40 sec) 
Heartbeat CPU 0 instructions: 28000000 cycles: 31993313 heartbeat IPC: 0.674541 cumulative IPC: 0.670894 (Simulation time: 1 hr 18 min 32 sec) 
Heartbeat CPU 0 instructions: 29000001 cycles: 33476234 heartbeat IPC: 0.674345 cumulative IPC: 0.671075 (Simulation time: 1 hr 21 min 40 sec) 
Heartbeat CPU 0 instructions: 30000001 cycles: 34959589 heartbeat IPC: 0.674147 cumulative IPC: 0.671228 (Simulation time: 1 hr 24 min 38 sec) 
Heartbeat CPU 0 instructions: 31000000 cycles: 36450463 heartbeat IPC: 0.670747 cumulative IPC: 0.671205 (Simulation time: 1 hr 27 min 21 sec) 
Heartbeat CPU 0 instructions: 32000000 cycles: 37944328 heartbeat IPC: 0.669405 cumulative IPC: 0.671123 (Simulation time: 1 hr 30 min 16 sec) 
Heartbeat CPU 0 instructions: 33000001 cycles: 39438288 heartbeat IPC: 0.669363 cumulative IPC: 0.671046 (Simulation time: 1 hr 33 min 11 sec) 
Heartbeat CPU 0 instructions: 34000002 cycles: 40932570 heartbeat IPC: 0.669218 cumulative IPC: 0.67097 (Simulation time: 1 hr 36 min 6 sec) 
Heartbeat CPU 0 instructions: 35000001 cycles: 42427913 heartbeat IPC: 0.668742 cumulative IPC: 0.67088 (Simulation time: 1 hr 38 min 58 sec) 
Heartbeat CPU 0 instructions: 36000000 cycles: 43922830 heartbeat IPC: 0.668933 cumulative IPC: 0.670805 (Simulation time: 1 hr 41 min 53 sec) 
Heartbeat CPU 0 instructions: 37000003 cycles: 45409264 heartbeat IPC: 0.672753 cumulative IPC: 0.670877 (Simulation time: 1 hr 44 min 52 sec) 
Heartbeat CPU 0 instructions: 38000000 cycles: 46891979 heartbeat IPC: 0.674436 cumulative IPC: 0.671004 (Simulation time: 1 hr 47 min 51 sec) 
Heartbeat CPU 0 instructions: 39000001 cycles: 48375858 heartbeat IPC: 0.67391 cumulative IPC: 0.671104 (Simulation time: 1 hr 50 min 45 sec) 
Heartbeat CPU 0 instructions: 40000000 cycles: 49861715 heartbeat IPC: 0.673012 cumulative IPC: 0.671167 (Simulation time: 1 hr 53 min 34 sec) 
Heartbeat CPU 0 instructions: 41000000 cycles: 51355803 heartbeat IPC: 0.669305 cumulative IPC: 0.671107 (Simulation time: 1 hr 56 min 27 sec) 
Heartbeat CPU 0 instructions: 42000001 cycles: 52851622 heartbeat IPC: 0.668531 cumulative IPC: 0.671026 (Simulation time: 1 hr 59 min 23 sec) 
Heartbeat CPU 0 instructions: 43000001 cycles: 54345751 heartbeat IPC: 0.669286 cumulative IPC: 0.670973 (Simulation time: 2 hr 2 min 10 sec) 
Heartbeat CPU 0 instructions: 44000000 cycles: 55840891 heartbeat IPC: 0.668833 cumulative IPC: 0.67091 (Simulation time: 2 hr 4 min 50 sec) 
Heartbeat CPU 0 instructions: 45000000 cycles: 57335280 heartbeat IPC: 0.66917 cumulative IPC: 0.67086 (Simulation time: 2 hr 7 min 39 sec) 
Heartbeat CPU 0 instructions: 46000002 cycles: 60021948 heartbeat IPC: 0.372209 cumulative IPC: 0.656234 (Simulation time: 2 hr 10 min 44 sec) 
Heartbeat CPU 0 instructions: 47000002 cycles: 61639831 heartbeat IPC: 0.618092 cumulative IPC: 0.655141 (Simulation time: 2 hr 13 min 22 sec) 
Heartbeat CPU 0 instructions: 48000000 cycles: 63319105 heartbeat IPC: 0.595494 cumulative IPC: 0.653419 (Simulation time: 2 hr 16 min 9 sec) 
Heartbeat CPU 0 instructions: 49000001 cycles: 65008132 heartbeat IPC: 0.592057 cumulative IPC: 0.651687 (Simulation time: 2 hr 18 min 46 sec) 
Heartbeat CPU 0 instructions: 50000000 cycles: 66689606 heartbeat IPC: 0.594716 cumulative IPC: 0.65013 (Simulation time: 2 hr 21 min 25 sec) 
Heartbeat CPU 0 instructions: 51000000 cycles: 68439041 heartbeat IPC: 0.571613 cumulative IPC: 0.647959 (Simulation time: 2 hr 24 min 8 sec) 
Heartbeat CPU 0 instructions: 52000000 cycles: 70186230 heartbeat IPC: 0.572348 cumulative IPC: 0.645927 (Simulation time: 2 hr 27 min 0 sec) 
Heartbeat CPU 0 instructions: 53000002 cycles: 71214104 heartbeat IPC: 0.972884 cumulative IPC: 0.651016 (Simulation time: 2 hr 29 min 26 sec) 
Heartbeat CPU 0 instructions: 54000001 cycles: 72111689 heartbeat IPC: 1.1141 cumulative IPC: 0.657224 (Simulation time: 2 hr 31 min 44 sec) 
Heartbeat CPU 0 instructions: 55000000 cycles: 73016686 heartbeat IPC: 1.10497 cumulative IPC: 0.663196 (Simulation time: 2 hr 34 min 3 sec) 
Heartbeat CPU 0 instructions: 56000000 cycles: 73900104 heartbeat IPC: 1.13197 cumulative IPC: 0.669221 (Simulation time: 2 hr 36 min 44 sec) 
Heartbeat CPU 0 instructions: 57000001 cycles: 74790712 heartbeat IPC: 1.12283 cumulative IPC: 0.675023 (Simulation time: 2 hr 39 min 12 sec) 
Heartbeat CPU 0 instructions: 58000002 cycles: 75677518 heartbeat IPC: 1.12764 cumulative IPC: 0.680715 (Simulation time: 2 hr 41 min 44 sec) 
Heartbeat CPU 0 instructions: 59000003 cycles: 76566097 heartbeat IPC: 1.12539 cumulative IPC: 0.686249 (Simulation time: 2 hr 44 min 19 sec) 
Heartbeat CPU 0 instructions: 60000000 cycles: 77459245 heartbeat IPC: 1.11963 cumulative IPC: 0.691603 (Simulation time: 2 hr 46 min 57 sec) 
Heartbeat CPU 0 instructions: 61000003 cycles: 78754354 heartbeat IPC: 0.772138 cumulative IPC: 0.69302 (Simulation time: 2 hr 49 min 39 sec) 
Heartbeat CPU 0 instructions: 62000002 cycles: 80241959 heartbeat IPC: 0.672221 cumulative IPC: 0.692608 (Simulation time: 2 hr 52 min 32 sec) 
Heartbeat CPU 0 instructions: 63000002 cycles: 81727915 heartbeat IPC: 0.672967 cumulative IPC: 0.692227 (Simulation time: 2 hr 55 min 1 sec) 
Heartbeat CPU 0 instructions: 64000000 cycles: 83213962 heartbeat IPC: 0.672925 cumulative IPC: 0.69186 (Simulation time: 2 hr 57 min 31 sec) 
Heartbeat CPU 0 instructions: 65000001 cycles: 84701878 heartbeat IPC: 0.672082 cumulative IPC: 0.69149 (Simulation time: 3 hr 0 min 6 sec) 
Heartbeat CPU 0 instructions: 66000000 cycles: 86187585 heartbeat IPC: 0.67308 cumulative IPC: 0.691152 (Simulation time: 3 hr 2 min 38 sec) 
Heartbeat CPU 0 instructions: 67000001 cycles: 87676421 heartbeat IPC: 0.671666 cumulative IPC: 0.6908 (Simulation time: 3 hr 5 min 13 sec) 
Heartbeat CPU 0 instructions: 68000000 cycles: 89162519 heartbeat IPC: 0.672902 cumulative IPC: 0.690484 (Simulation time: 3 hr 8 min 0 sec) 
Heartbeat CPU 0 instructions: 69000002 cycles: 90648193 heartbeat IPC: 0.673097 cumulative IPC: 0.690182 (Simulation time: 3 hr 10 min 32 sec) 
Heartbeat CPU 0 instructions: 70000000 cycles: 92134601 heartbeat IPC: 0.672761 cumulative IPC: 0.689884 (Simulation time: 3 hr 13 min 16 sec) 
Heartbeat CPU 0 instructions: 71000001 cycles: 93621699 heartbeat IPC: 0.672451 cumulative IPC: 0.689591 (Simulation time: 3 hr 16 min 3 sec) 
Heartbeat CPU 0 instructions: 72000000 cycles: 95109786 heartbeat IPC: 0.672003 cumulative IPC: 0.6893 (Simulation time: 3 hr 19 min 3 sec) 
Heartbeat CPU 0 instructions: 73000000 cycles: 96595778 heartbeat IPC: 0.672951 cumulative IPC: 0.689034 (Simulation time: 3 hr 21 min 47 sec) 
Heartbeat CPU 0 instructions: 74000003 cycles: 98081471 heartbeat IPC: 0.673089 cumulative IPC: 0.688779 (Simulation time: 3 hr 24 min 43 sec) 
Heartbeat CPU 0 instructions: 75000003 cycles: 99567796 heartbeat IPC: 0.6728 cumulative IPC: 0.688528 (Simulation time: 3 hr 27 min 24 sec) 
Heartbeat CPU 0 instructions: 76000000 cycles: 101053890 heartbeat IPC: 0.672903 cumulative IPC: 0.688286 (Simulation time: 3 hr 30 min 11 sec) 
Heartbeat CPU 0 instructions: 77000002 cycles: 102542638 heartbeat IPC: 0.671707 cumulative IPC: 0.688032 (Simulation time: 3 hr 33 min 7 sec) 
Heartbeat CPU 0 instructions: 78000001 cycles: 104029280 heartbeat IPC: 0.672656 cumulative IPC: 0.687801 (Simulation time: 3 hr 35 min 42 sec) 
Heartbeat CPU 0 instructions: 79000001 cycles: 105517875 heartbeat IPC: 0.671774 cumulative IPC: 0.687563 (Simulation time: 3 hr 38 min 23 sec) 
Heartbeat CPU 0 instructions: 80000000 cycles: 107003427 heartbeat IPC: 0.67315 cumulative IPC: 0.687353 (Simulation time: 3 hr 41 min 3 sec) 
Heartbeat CPU 0 instructions: 81000000 cycles: 108490595 heartbeat IPC: 0.672419 cumulative IPC: 0.687138 (Simulation time: 3 hr 43 min 41 sec) 
Heartbeat CPU 0 instructions: 82000003 cycles: 109976167 heartbeat IPC: 0.673143 cumulative IPC: 0.68694 (Simulation time: 3 hr 46 min 20 sec) 
Heartbeat CPU 0 instructions: 83000003 cycles: 111465790 heartbeat IPC: 0.671311 cumulative IPC: 0.686721 (Simulation time: 3 hr 49 min 8 sec) 
Heartbeat CPU 0 instructions: 84000000 cycles: 112951739 heartbeat IPC: 0.672969 cumulative IPC: 0.686531 (Simulation time: 3 hr 51 min 56 sec) 
Heartbeat CPU 0 instructions: 85000002 cycles: 114438272 heartbeat IPC: 0.672708 cumulative IPC: 0.686343 (Simulation time: 3 hr 54 min 39 sec) 
Heartbeat CPU 0 instructions: 86000001 cycles: 115923744 heartbeat IPC: 0.673186 cumulative IPC: 0.686166 (Simulation time: 3 hr 57 min 33 sec) 
Heartbeat CPU 0 instructions: 87000001 cycles: 117410189 heartbeat IPC: 0.672746 cumulative IPC: 0.685989 (Simulation time: 4 hr 0 min 19 sec) 
Heartbeat CPU 0 instructions: 88000000 cycles: 118925624 heartbeat IPC: 0.659876 cumulative IPC: 0.685641 (Simulation time: 4 hr 3 min 4 sec) 
Heartbeat CPU 0 instructions: 89000003 cycles: 120440682 heartbeat IPC: 0.660043 cumulative IPC: 0.685304 (Simulation time: 4 hr 6 min 0 sec) 
Heartbeat CPU 0 instructions: 90000003 cycles: 121958410 heartbeat IPC: 0.65888 cumulative IPC: 0.684961 (Simulation time: 4 hr 8 min 44 sec) 
Heartbeat CPU 0 instructions: 91000001 cycles: 123474252 heartbeat IPC: 0.659698 cumulative IPC: 0.684637 (Simulation time: 4 hr 11 min 34 sec) 
Heartbeat CPU 0 instructions: 92000000 cycles: 124987814 heartbeat IPC: 0.660692 cumulative IPC: 0.684335 (Simulation time: 4 hr 14 min 20 sec) 
Heartbeat CPU 0 instructions: 93000001 cycles: 126505700 heartbeat IPC: 0.658812 cumulative IPC: 0.684016 (Simulation time: 4 hr 17 min 14 sec) 
Heartbeat CPU 0 instructions: 94000001 cycles: 128019030 heartbeat IPC: 0.660794 cumulative IPC: 0.68373 (Simulation time: 4 hr 19 min 51 sec) 
Heartbeat CPU 0 instructions: 95000001 cycles: 129529601 heartbeat IPC: 0.662001 cumulative IPC: 0.683466 (Simulation time: 4 hr 22 min 16 sec) 
Heartbeat CPU 0 instructions: 96000000 cycles: 131044768 heartbeat IPC: 0.659993 cumulative IPC: 0.683183 (Simulation time: 4 hr 24 min 35 sec) 
Heartbeat CPU 0 instructions: 97000000 cycles: 132561813 heartbeat IPC: 0.659176 cumulative IPC: 0.682897 (Simulation time: 4 hr 26 min 48 sec) 
Heartbeat CPU 0 instructions: 98000000 cycles: 134076815 heartbeat IPC: 0.660065 cumulative IPC: 0.682629 (Simulation time: 4 hr 28 min 55 sec) 
Heartbeat CPU 0 instructions: 99000000 cycles: 135589608 heartbeat IPC: 0.661029 cumulative IPC: 0.682378 (Simulation time: 4 hr 31 min 0 sec) 
Heartbeat CPU 0 instructions: 100000000 cycles: 137106963 heartbeat IPC: 0.659042 cumulative IPC: 0.68211 (Simulation time: 4 hr 32 min 57 sec) 
Heartbeat CPU 0 instructions: 101000002 cycles: 138625509 heartbeat IPC: 0.658526 cumulative IPC: 0.681842 (Simulation time: 4 hr 34 min 47 sec) 
Heartbeat CPU 0 instructions: 102000002 cycles: 140140031 heartbeat IPC: 0.660274 cumulative IPC: 0.6816 (Simulation time: 4 hr 36 min 39 sec) 
Heartbeat CPU 0 instructions: 103000002 cycles: 141655436 heartbeat IPC: 0.65989 cumulative IPC: 0.681359 (Simulation time: 4 hr 38 min 36 sec) 
Heartbeat CPU 0 instructions: 104000000 cycles: 143171862 heartbeat IPC: 0.659444 cumulative IPC: 0.681118 (Simulation time: 4 hr 40 min 28 sec) 
Heartbeat CPU 0 instructions: 105000001 cycles: 144687878 heartbeat IPC: 0.659624 cumulative IPC: 0.680884 (Simulation time: 4 hr 42 min 24 sec) 
Heartbeat CPU 0 instructions: 106000001 cycles: 146205453 heartbeat IPC: 0.658946 cumulative IPC: 0.680648 (Simulation time: 4 hr 44 min 10 sec) 
Heartbeat CPU 0 instructions: 107000000 cycles: 147719432 heartbeat IPC: 0.66051 cumulative IPC: 0.680434 (Simulation time: 4 hr 45 min 52 sec) 
Heartbeat CPU 0 instructions: 108000000 cycles: 149236738 heartbeat IPC: 0.659063 cumulative IPC: 0.680209 (Simulation time: 4 hr 47 min 34 sec) 
Heartbeat CPU 0 instructions: 109000000 cycles: 150754705 heartbeat IPC: 0.658776 cumulative IPC: 0.679986 (Simulation time: 4 hr 49 min 3 sec) 
Heartbeat CPU 0 instructions: 110000001 cycles: 152271235 heartbeat IPC: 0.659401 cumulative IPC: 0.679774 (Simulation time: 4 hr 50 min 26 sec) 
Finished CPU 0 instructions: 100000000 cycles: 147107782 cummulative IPC: 0.679774 (Simulation time: 4 hr 50 min 26 sec) 

ChampSim completed all CPUs

Region of Interest Statistics

CPU 0 cummulative IPC: 0.679774 instructions: 100000000 cycles: 147107782
LLC TOTAL     ACCESS:    1083133  HIT:          0  MISS:    1083133
LLC LOAD      ACCESS:      56847  HIT:          0  MISS:      56847
LLC RFO       ACCESS:     201403  HIT:          0  MISS:     201403
LLC PREFETCH  ACCESS:     597121  HIT:          0  MISS:     597121
LLC WRITEBACK ACCESS:     227762  HIT:          0  MISS:     227762
