
*** ChampSim Multicore Out-of-Order Simulator ***

Warmup Instructions: 10000000
Simulation Instructions: 100000000
Configuration: 2
Number of CPUs: 1
LLC sets: 2048
LLC ways: 16
Off-chip DRAM Channels: 1 Width: 64-bit Data Rate: 1600 MT/s

CPU 0 runs /datasets/cs240c-wi22-a00-public/data/Assignment2-gz/calculix_3812B.trace.gz
CPU 0 L1D next line prefetcher
CPU 0 L2C IP-based stride prefetcher
config 2, num_core 1, llc_sets 2048
Heartbeat CPU 0 instructions: 1000001 cycles: 478754 heartbeat IPC: 2.08876 cumulative IPC: 2.08876 (Simulation time: 0 hr 2 min 48 sec) 
Heartbeat CPU 0 instructions: 2000002 cycles: 956644 heartbeat IPC: 2.09253 cumulative IPC: 2.09064 (Simulation time: 0 hr 5 min 42 sec) 
Heartbeat CPU 0 instructions: 3000002 cycles: 1435177 heartbeat IPC: 2.08972 cumulative IPC: 2.09034 (Simulation time: 0 hr 8 min 28 sec) 
Heartbeat CPU 0 instructions: 4000000 cycles: 1907662 heartbeat IPC: 2.11647 cumulative IPC: 2.09681 (Simulation time: 0 hr 11 min 21 sec) 
Heartbeat CPU 0 instructions: 5000000 cycles: 2355679 heartbeat IPC: 2.23206 cumulative IPC: 2.12253 (Simulation time: 0 hr 13 min 50 sec) 
Heartbeat CPU 0 instructions: 6000003 cycles: 2760970 heartbeat IPC: 2.46737 cumulative IPC: 2.17315 (Simulation time: 0 hr 15 min 54 sec) 
Heartbeat CPU 0 instructions: 7000002 cycles: 3154026 heartbeat IPC: 2.54416 cumulative IPC: 2.21939 (Simulation time: 0 hr 17 min 56 sec) 
Heartbeat CPU 0 instructions: 8000000 cycles: 3547156 heartbeat IPC: 2.54368 cumulative IPC: 2.25533 (Simulation time: 0 hr 20 min 0 sec) 
Heartbeat CPU 0 instructions: 9000000 cycles: 3940105 heartbeat IPC: 2.54486 cumulative IPC: 2.2842 (Simulation time: 0 hr 22 min 8 sec) 
Heartbeat CPU 0 instructions: 10000003 cycles: 4333171 heartbeat IPC: 2.54411 cumulative IPC: 2.30778 (Simulation time: 0 hr 24 min 15 sec) 

Warmup complete CPU 0 instructions: 10000003 cycles: 4333171 (Simulation time: 0 hr 24 min 15 sec) 

Heartbeat CPU 0 instructions: 11000001 cycles: 4958629 heartbeat IPC: 1.59883 cumulative IPC: 1.59883 (Simulation time: 0 hr 26 min 38 sec) 
Heartbeat CPU 0 instructions: 12000000 cycles: 5568549 heartbeat IPC: 1.63956 cumulative IPC: 1.61894 (Simulation time: 0 hr 29 min 2 sec) 
Heartbeat CPU 0 instructions: 13000003 cycles: 6178527 heartbeat IPC: 1.63941 cumulative IPC: 1.6257 (Simulation time: 0 hr 31 min 30 sec) 
Heartbeat CPU 0 instructions: 14000001 cycles: 7093469 heartbeat IPC: 1.09296 cumulative IPC: 1.44912 (Simulation time: 0 hr 34 min 28 sec) 
Heartbeat CPU 0 instructions: 15000003 cycles: 7719717 heartbeat IPC: 1.59681 cumulative IPC: 1.47643 (Simulation time: 0 hr 36 min 50 sec) 
Heartbeat CPU 0 instructions: 16000000 cycles: 8325453 heartbeat IPC: 1.65088 cumulative IPC: 1.5029 (Simulation time: 0 hr 39 min 6 sec) 
Heartbeat CPU 0 instructions: 17000001 cycles: 8910525 heartbeat IPC: 1.70919 cumulative IPC: 1.52927 (Simulation time: 0 hr 41 min 35 sec) 
Heartbeat CPU 0 instructions: 18000001 cycles: 9472870 heartbeat IPC: 1.77827 cumulative IPC: 1.55651 (Simulation time: 0 hr 44 min 2 sec) 
Heartbeat CPU 0 instructions: 19000001 cycles: 10035869 heartbeat IPC: 1.7762 cumulative IPC: 1.5782 (Simulation time: 0 hr 46 min 30 sec) 
Heartbeat CPU 0 instructions: 20000000 cycles: 10684124 heartbeat IPC: 1.5426 cumulative IPC: 1.57457 (Simulation time: 0 hr 49 min 0 sec) 
Heartbeat CPU 0 instructions: 21000001 cycles: 11263859 heartbeat IPC: 1.72493 cumulative IPC: 1.58714 (Simulation time: 0 hr 51 min 22 sec) 
Heartbeat CPU 0 instructions: 22000002 cycles: 11853639 heartbeat IPC: 1.69555 cumulative IPC: 1.59565 (Simulation time: 0 hr 53 min 38 sec) 
Heartbeat CPU 0 instructions: 23000002 cycles: 12434817 heartbeat IPC: 1.72064 cumulative IPC: 1.60461 (Simulation time: 0 hr 55 min 55 sec) 
Heartbeat CPU 0 instructions: 24000000 cycles: 13035058 heartbeat IPC: 1.66599 cumulative IPC: 1.60885 (Simulation time: 0 hr 58 min 17 sec) 
Heartbeat CPU 0 instructions: 25000003 cycles: 13653817 heartbeat IPC: 1.61614 cumulative IPC: 1.60933 (Simulation time: 1 hr 0 min 45 sec) 
Heartbeat CPU 0 instructions: 26000003 cycles: 14239337 heartbeat IPC: 1.70788 cumulative IPC: 1.61516 (Simulation time: 1 hr 3 min 11 sec) 
Heartbeat CPU 0 instructions: 27000000 cycles: 14843514 heartbeat IPC: 1.65514 cumulative IPC: 1.61745 (Simulation time: 1 hr 5 min 33 sec) 
Heartbeat CPU 0 instructions: 28000000 cycles: 15542327 heartbeat IPC: 1.431 cumulative IPC: 1.60583 (Simulation time: 1 hr 8 min 8 sec) 
Heartbeat CPU 0 instructions: 29000002 cycles: 16044461 heartbeat IPC: 1.9915 cumulative IPC: 1.62237 (Simulation time: 1 hr 10 min 31 sec) 
Heartbeat CPU 0 instructions: 30000001 cycles: 16666703 heartbeat IPC: 1.60709 cumulative IPC: 1.6216 (Simulation time: 1 hr 12 min 57 sec) 
Heartbeat CPU 0 instructions: 31000001 cycles: 17263837 heartbeat IPC: 1.67467 cumulative IPC: 1.62405 (Simulation time: 1 hr 15 min 20 sec) 
Heartbeat CPU 0 instructions: 32000000 cycles: 18446067 heartbeat IPC: 0.845858 cumulative IPC: 1.55886 (Simulation time: 1 hr 18 min 5 sec) 
Heartbeat CPU 0 instructions: 33000003 cycles: 19650675 heartbeat IPC: 0.830148 cumulative IPC: 1.50155 (Simulation time: 1 hr 20 min 56 sec) 
Heartbeat CPU 0 instructions: 34000000 cycles: 20816814 heartbeat IPC: 0.857528 cumulative IPC: 1.45599 (Simulation time: 1 hr 23 min 35 sec) 
Heartbeat CPU 0 instructions: 35000000 cycles: 21792080 heartbeat IPC: 1.02536 cumulative IPC: 1.43193 (Simulation time: 1 hr 26 min 2 sec) 
Heartbeat CPU 0 instructions: 36000000 cycles: 22570106 heartbeat IPC: 1.2853 cumulative IPC: 1.42568 (Simulation time: 1 hr 28 min 32 sec) 
Heartbeat CPU 0 instructions: 37000002 cycles: 23235856 heartbeat IPC: 1.50207 cumulative IPC: 1.42837 (Simulation time: 1 hr 30 min 52 sec) 
Heartbeat CPU 0 instructions: 38000003 cycles: 23871112 heartbeat IPC: 1.57417 cumulative IPC: 1.43311 (Simulation time: 1 hr 33 min 25 sec) 
Heartbeat CPU 0 instructions: 39000003 cycles: 24904060 heartbeat IPC: 0.968103 cumulative IPC: 1.40976 (Simulation time: 1 hr 36 min 4 sec) 
Heartbeat CPU 0 instructions: 40000000 cycles: 25761145 heartbeat IPC: 1.16674 cumulative IPC: 1.40004 (Simulation time: 1 hr 38 min 33 sec) 
Heartbeat CPU 0 instructions: 41000000 cycles: 26770082 heartbeat IPC: 0.991142 cumulative IPC: 1.38165 (Simulation time: 1 hr 40 min 56 sec) 
Heartbeat CPU 0 instructions: 42000001 cycles: 27451786 heartbeat IPC: 1.46691 cumulative IPC: 1.38417 (Simulation time: 1 hr 43 min 23 sec) 
Heartbeat CPU 0 instructions: 43000000 cycles: 28162119 heartbeat IPC: 1.40779 cumulative IPC: 1.38487 (Simulation time: 1 hr 45 min 58 sec) 
Heartbeat CPU 0 instructions: 44000000 cycles: 29117423 heartbeat IPC: 1.04679 cumulative IPC: 1.37184 (Simulation time: 1 hr 48 min 32 sec) 
Heartbeat CPU 0 instructions: 45000002 cycles: 30019919 heartbeat IPC: 1.10804 cumulative IPC: 1.36257 (Simulation time: 1 hr 51 min 12 sec) 
Heartbeat CPU 0 instructions: 46000002 cycles: 30782228 heartbeat IPC: 1.3118 cumulative IPC: 1.36111 (Simulation time: 1 hr 53 min 50 sec) 
Heartbeat CPU 0 instructions: 47000002 cycles: 31830800 heartbeat IPC: 0.953678 cumulative IPC: 1.34557 (Simulation time: 1 hr 56 min 29 sec) 
Heartbeat CPU 0 instructions: 48000000 cycles: 32356880 heartbeat IPC: 1.90085 cumulative IPC: 1.35599 (Simulation time: 1 hr 58 min 41 sec) 
Heartbeat CPU 0 instructions: 49000000 cycles: 32888975 heartbeat IPC: 1.87936 cumulative IPC: 1.36575 (Simulation time: 2 hr 0 min 44 sec) 
Heartbeat CPU 0 instructions: 50000000 cycles: 33468150 heartbeat IPC: 1.72659 cumulative IPC: 1.37292 (Simulation time: 2 hr 2 min 59 sec) 
Heartbeat CPU 0 instructions: 51000000 cycles: 34163513 heartbeat IPC: 1.4381 cumulative IPC: 1.37444 (Simulation time: 2 hr 5 min 14 sec) 
Heartbeat CPU 0 instructions: 52000000 cycles: 34931215 heartbeat IPC: 1.30259 cumulative IPC: 1.37264 (Simulation time: 2 hr 7 min 29 sec) 
Heartbeat CPU 0 instructions: 53000000 cycles: 35592150 heartbeat IPC: 1.51301 cumulative IPC: 1.3756 (Simulation time: 2 hr 9 min 36 sec) 
Heartbeat CPU 0 instructions: 54000003 cycles: 36245455 heartbeat IPC: 1.53068 cumulative IPC: 1.37878 (Simulation time: 2 hr 11 min 47 sec) 
Heartbeat CPU 0 instructions: 55000001 cycles: 36897426 heartbeat IPC: 1.53381 cumulative IPC: 1.38188 (Simulation time: 2 hr 14 min 0 sec) 
Heartbeat CPU 0 instructions: 56000000 cycles: 37554278 heartbeat IPC: 1.52241 cumulative IPC: 1.38466 (Simulation time: 2 hr 16 min 9 sec) 
Heartbeat CPU 0 instructions: 57000003 cycles: 38209851 heartbeat IPC: 1.52539 cumulative IPC: 1.38739 (Simulation time: 2 hr 18 min 13 sec) 
Heartbeat CPU 0 instructions: 58000002 cycles: 38871977 heartbeat IPC: 1.51029 cumulative IPC: 1.38974 (Simulation time: 2 hr 20 min 24 sec) 
Heartbeat CPU 0 instructions: 59000001 cycles: 39521909 heartbeat IPC: 1.53862 cumulative IPC: 1.39249 (Simulation time: 2 hr 22 min 23 sec) 
Heartbeat CPU 0 instructions: 60000000 cycles: 40144021 heartbeat IPC: 1.60743 cumulative IPC: 1.39622 (Simulation time: 2 hr 24 min 23 sec) 
Heartbeat CPU 0 instructions: 61000003 cycles: 40785644 heartbeat IPC: 1.55855 cumulative IPC: 1.39908 (Simulation time: 2 hr 26 min 38 sec) 
Heartbeat CPU 0 instructions: 62000002 cycles: 41419739 heartbeat IPC: 1.57705 cumulative IPC: 1.40212 (Simulation time: 2 hr 28 min 48 sec) 
Heartbeat CPU 0 instructions: 63000003 cycles: 42064035 heartbeat IPC: 1.55208 cumulative IPC: 1.40469 (Simulation time: 2 hr 31 min 7 sec) 
Heartbeat CPU 0 instructions: 64000000 cycles: 42697864 heartbeat IPC: 1.57771 cumulative IPC: 1.40754 (Simulation time: 2 hr 33 min 27 sec) 
Heartbeat CPU 0 instructions: 65000000 cycles: 43499598 heartbeat IPC: 1.2473 cumulative IPC: 1.40426 (Simulation time: 2 hr 35 min 55 sec) 
Heartbeat CPU 0 instructions: 66000002 cycles: 44158826 heartbeat IPC: 1.51693 cumulative IPC: 1.40613 (Simulation time: 2 hr 38 min 17 sec) 
Heartbeat CPU 0 instructions: 67000002 cycles: 44728727 heartbeat IPC: 1.75469 cumulative IPC: 1.41105 (Simulation time: 2 hr 40 min 45 sec) 
Heartbeat CPU 0 instructions: 68000000 cycles: 45281141 heartbeat IPC: 1.81023 cumulative IPC: 1.41643 (Simulation time: 2 hr 43 min 4 sec) 
Heartbeat CPU 0 instructions: 69000003 cycles: 45908920 heartbeat IPC: 1.59292 cumulative IPC: 1.4191 (Simulation time: 2 hr 45 min 15 sec) 
Heartbeat CPU 0 instructions: 70000003 cycles: 46484262 heartbeat IPC: 1.7381 cumulative IPC: 1.42345 (Simulation time: 2 hr 47 min 34 sec) 
Heartbeat CPU 0 instructions: 71000000 cycles: 47072442 heartbeat IPC: 1.70015 cumulative IPC: 1.42726 (Simulation time: 2 hr 49 min 45 sec) 
Heartbeat CPU 0 instructions: 72000000 cycles: 47662533 heartbeat IPC: 1.69465 cumulative IPC: 1.4309 (Simulation time: 2 hr 52 min 4 sec) 
Heartbeat CPU 0 instructions: 73000001 cycles: 48279907 heartbeat IPC: 1.61977 cumulative IPC: 1.43355 (Simulation time: 2 hr 54 min 24 sec) 
Heartbeat CPU 0 instructions: 74000002 cycles: 48961906 heartbeat IPC: 1.46628 cumulative IPC: 1.43405 (Simulation time: 2 hr 56 min 41 sec) 
Heartbeat CPU 0 instructions: 75000000 cycles: 49546519 heartbeat IPC: 1.71053 cumulative IPC: 1.43763 (Simulation time: 2 hr 58 min 58 sec) 
Heartbeat CPU 0 instructions: 76000000 cycles: 50844598 heartbeat IPC: 0.770369 cumulative IPC: 1.41901 (Simulation time: 3 hr 1 min 39 sec) 
Heartbeat CPU 0 instructions: 77000000 cycles: 52170425 heartbeat IPC: 0.754246 cumulative IPC: 1.40058 (Simulation time: 3 hr 4 min 24 sec) 
Heartbeat CPU 0 instructions: 78000003 cycles: 53477458 heartbeat IPC: 0.765094 cumulative IPC: 1.38368 (Simulation time: 3 hr 7 min 11 sec) 
Heartbeat CPU 0 instructions: 79000001 cycles: 54708195 heartbeat IPC: 0.81252 cumulative IPC: 1.36973 (Simulation time: 3 hr 9 min 49 sec) 
Heartbeat CPU 0 instructions: 80000000 cycles: 55751070 heartbeat IPC: 0.958887 cumulative IPC: 1.36139 (Simulation time: 3 hr 12 min 21 sec) 
Heartbeat CPU 0 instructions: 81000001 cycles: 56630784 heartbeat IPC: 1.13673 cumulative IPC: 1.35761 (Simulation time: 3 hr 14 min 48 sec) 
Heartbeat CPU 0 instructions: 82000002 cycles: 57321134 heartbeat IPC: 1.44854 cumulative IPC: 1.3588 (Simulation time: 3 hr 17 min 28 sec) 
Heartbeat CPU 0 instructions: 83000002 cycles: 58516266 heartbeat IPC: 0.836728 cumulative IPC: 1.34728 (Simulation time: 3 hr 20 min 6 sec) 
Heartbeat CPU 0 instructions: 84000000 cycles: 59363530 heartbeat IPC: 1.18027 cumulative IPC: 1.34471 (Simulation time: 3 hr 22 min 20 sec) 
Heartbeat CPU 0 instructions: 85000000 cycles: 60029321 heartbeat IPC: 1.50197 cumulative IPC: 1.34659 (Simulation time: 3 hr 24 min 25 sec) 
Heartbeat CPU 0 instructions: 86000001 cycles: 60692093 heartbeat IPC: 1.50882 cumulative IPC: 1.3485 (Simulation time: 3 hr 26 min 52 sec) 
Heartbeat CPU 0 instructions: 87000002 cycles: 61358159 heartbeat IPC: 1.50135 cumulative IPC: 1.35029 (Simulation time: 3 hr 28 min 50 sec) 
Heartbeat CPU 0 instructions: 88000000 cycles: 62012757 heartbeat IPC: 1.52765 cumulative IPC: 1.3523 (Simulation time: 3 hr 31 min 7 sec) 
Heartbeat CPU 0 instructions: 89000003 cycles: 62666551 heartbeat IPC: 1.52954 cumulative IPC: 1.35428 (Simulation time: 3 hr 33 min 17 sec) 
Heartbeat CPU 0 instructions: 90000003 cycles: 63321886 heartbeat IPC: 1.52594 cumulative IPC: 1.35619 (Simulation time: 3 hr 35 min 28 sec) 
Heartbeat CPU 0 instructions: 91000002 cycles: 63991091 heartbeat IPC: 1.49431 cumulative IPC: 1.35774 (Simulation time: 3 hr 37 min 55 sec) 
Heartbeat CPU 0 instructions: 92000000 cycles: 64541940 heartbeat IPC: 1.81538 cumulative IPC: 1.36193 (Simulation time: 3 hr 40 min 6 sec) 
Heartbeat CPU 0 instructions: 93000000 cycles: 65059966 heartbeat IPC: 1.93041 cumulative IPC: 1.36678 (Simulation time: 3 hr 42 min 25 sec) 
Heartbeat CPU 0 instructions: 94000003 cycles: 65578539 heartbeat IPC: 1.92837 cumulative IPC: 1.37153 (Simulation time: 3 hr 44 min 36 sec) 
Heartbeat CPU 0 instructions: 95000001 cycles: 66312673 heartbeat IPC: 1.36215 cumulative IPC: 1.37142 (Simulation time: 3 hr 46 min 57 sec) 
Heartbeat CPU 0 instructions: 96000000 cycles: 67048783 heartbeat IPC: 1.35849 cumulative IPC: 1.37127 (Simulation time: 3 hr 49 min 12 sec) 
Heartbeat CPU 0 instructions: 97000000 cycles: 67703951 heartbeat IPC: 1.52633 cumulative IPC: 1.37287 (Simulation time: 3 hr 51 min 15 sec) 
Heartbeat CPU 0 instructions: 98000003 cycles: 68358289 heartbeat IPC: 1.52827 cumulative IPC: 1.37446 (Simulation time: 3 hr 53 min 22 sec) 
Heartbeat CPU 0 instructions: 99000000 cycles: 69013783 heartbeat IPC: 1.52556 cumulative IPC: 1.37599 (Simulation time: 3 hr 55 min 41 sec) 
Heartbeat CPU 0 instructions: 100000000 cycles: 69673130 heartbeat IPC: 1.51665 cumulative IPC: 1.37741 (Simulation time: 3 hr 57 min 54 sec) 
Heartbeat CPU 0 instructions: 101000003 cycles: 70327631 heartbeat IPC: 1.52789 cumulative IPC: 1.3789 (Simulation time: 4 hr 0 min 9 sec) 
Heartbeat CPU 0 instructions: 102000002 cycles: 70997675 heartbeat IPC: 1.49244 cumulative IPC: 1.38004 (Simulation time: 4 hr 2 min 14 sec) 
Heartbeat CPU 0 instructions: 103000000 cycles: 71622618 heartbeat IPC: 1.60014 cumulative IPC: 1.38209 (Simulation time: 4 hr 4 min 24 sec) 
Heartbeat CPU 0 instructions: 104000000 cycles: 72247024 heartbeat IPC: 1.60152 cumulative IPC: 1.38411 (Simulation time: 4 hr 6 min 37 sec) 
Heartbeat CPU 0 instructions: 105000000 cycles: 72884473 heartbeat IPC: 1.56875 cumulative IPC: 1.38582 (Simulation time: 4 hr 8 min 45 sec) 
Heartbeat CPU 0 instructions: 106000003 cycles: 73515713 heartbeat IPC: 1.58419 cumulative IPC: 1.38763 (Simulation time: 4 hr 10 min 56 sec) 
Heartbeat CPU 0 instructions: 107000000 cycles: 74152003 heartbeat IPC: 1.57161 cumulative IPC: 1.38931 (Simulation time: 4 hr 13 min 7 sec) 
Heartbeat CPU 0 instructions: 108000000 cycles: 74847639 heartbeat IPC: 1.43753 cumulative IPC: 1.38979 (Simulation time: 4 hr 15 min 16 sec) 
Heartbeat CPU 0 instructions: 109000002 cycles: 75621750 heartbeat IPC: 1.29181 cumulative IPC: 1.38872 (Simulation time: 4 hr 17 min 25 sec) 
Heartbeat CPU 0 instructions: 110000003 cycles: 76157225 heartbeat IPC: 1.8675 cumulative IPC: 1.39229 (Simulation time: 4 hr 19 min 30 sec) 
Finished CPU 0 instructions: 100000000 cycles: 71824054 cummulative IPC: 1.39229 (Simulation time: 4 hr 19 min 30 sec) 

ChampSim completed all CPUs

Region of Interest Statistics

CPU 0 cummulative IPC: 1.39229 instructions: 100000000 cycles: 71824054
LLC TOTAL     ACCESS:    1161484  HIT:          0  MISS:    1161484
LLC LOAD      ACCESS:     127802  HIT:          0  MISS:     127802
LLC RFO       ACCESS:      47522  HIT:          0  MISS:      47522
LLC PREFETCH  ACCESS:     686371  HIT:          0  MISS:     686371
LLC WRITEBACK ACCESS:     299789  HIT:          0  MISS:     299789
