
*** ChampSim Multicore Out-of-Order Simulator ***

Warmup Instructions: 10000000
Simulation Instructions: 100000000
Configuration: 2
Number of CPUs: 1
LLC sets: 2048
LLC ways: 16
Off-chip DRAM Channels: 1 Width: 64-bit Data Rate: 1600 MT/s

CPU 0 runs /datasets/cs240c-wi22-a00-public/data/Assignment2-gz/perlbench_53B.trace.gz
CPU 0 L1D next line prefetcher
CPU 0 L2C IP-based stride prefetcher
config 2, num_core 1, llc_sets 2048
Heartbeat CPU 0 instructions: 1000000 cycles: 616212 heartbeat IPC: 1.62282 cumulative IPC: 1.62282 (Simulation time: 0 hr 2 min 47 sec) 
Heartbeat CPU 0 instructions: 2000001 cycles: 1253594 heartbeat IPC: 1.56892 cumulative IPC: 1.59541 (Simulation time: 0 hr 5 min 36 sec) 
Heartbeat CPU 0 instructions: 3000002 cycles: 1909259 heartbeat IPC: 1.52517 cumulative IPC: 1.57129 (Simulation time: 0 hr 8 min 20 sec) 
Heartbeat CPU 0 instructions: 4000000 cycles: 2526530 heartbeat IPC: 1.62003 cumulative IPC: 1.5832 (Simulation time: 0 hr 11 min 0 sec) 
Heartbeat CPU 0 instructions: 5000001 cycles: 3155286 heartbeat IPC: 1.59044 cumulative IPC: 1.58464 (Simulation time: 0 hr 13 min 54 sec) 
Heartbeat CPU 0 instructions: 6000001 cycles: 3771700 heartbeat IPC: 1.62229 cumulative IPC: 1.59079 (Simulation time: 0 hr 16 min 40 sec) 
Heartbeat CPU 0 instructions: 7000002 cycles: 4396294 heartbeat IPC: 1.60104 cumulative IPC: 1.59225 (Simulation time: 0 hr 19 min 36 sec) 
Heartbeat CPU 0 instructions: 8000000 cycles: 5007237 heartbeat IPC: 1.63681 cumulative IPC: 1.59769 (Simulation time: 0 hr 22 min 9 sec) 
Heartbeat CPU 0 instructions: 9000000 cycles: 5659552 heartbeat IPC: 1.533 cumulative IPC: 1.59023 (Simulation time: 0 hr 24 min 54 sec) 
Heartbeat CPU 0 instructions: 10000001 cycles: 6296467 heartbeat IPC: 1.57007 cumulative IPC: 1.58819 (Simulation time: 0 hr 27 min 28 sec) 

Warmup complete CPU 0 instructions: 10000001 cycles: 6296467 (Simulation time: 0 hr 27 min 28 sec) 

Heartbeat CPU 0 instructions: 11000000 cycles: 10097212 heartbeat IPC: 0.263106 cumulative IPC: 0.263106 (Simulation time: 0 hr 30 min 49 sec) 
Heartbeat CPU 0 instructions: 12000000 cycles: 13583096 heartbeat IPC: 0.286871 cumulative IPC: 0.274475 (Simulation time: 0 hr 33 min 59 sec) 
Heartbeat CPU 0 instructions: 13000000 cycles: 16203726 heartbeat IPC: 0.381588 cumulative IPC: 0.302808 (Simulation time: 0 hr 37 min 6 sec) 
Heartbeat CPU 0 instructions: 14000000 cycles: 19199533 heartbeat IPC: 0.3338 cumulative IPC: 0.310004 (Simulation time: 0 hr 40 min 22 sec) 
Heartbeat CPU 0 instructions: 15000001 cycles: 22714034 heartbeat IPC: 0.284536 cumulative IPC: 0.304552 (Simulation time: 0 hr 43 min 30 sec) 
Heartbeat CPU 0 instructions: 16000000 cycles: 25802795 heartbeat IPC: 0.323754 cumulative IPC: 0.307592 (Simulation time: 0 hr 46 min 42 sec) 
Heartbeat CPU 0 instructions: 17000001 cycles: 28933840 heartbeat IPC: 0.319383 cumulative IPC: 0.309223 (Simulation time: 0 hr 49 min 50 sec) 
Heartbeat CPU 0 instructions: 18000002 cycles: 32173695 heartbeat IPC: 0.308656 cumulative IPC: 0.309152 (Simulation time: 0 hr 53 min 6 sec) 
Heartbeat CPU 0 instructions: 19000000 cycles: 35921524 heartbeat IPC: 0.266821 cumulative IPC: 0.303797 (Simulation time: 0 hr 56 min 11 sec) 
Heartbeat CPU 0 instructions: 20000000 cycles: 39134500 heartbeat IPC: 0.311238 cumulative IPC: 0.304525 (Simulation time: 1 hr 0 min 0 sec) 
Heartbeat CPU 0 instructions: 21000000 cycles: 41687220 heartbeat IPC: 0.391739 cumulative IPC: 0.310816 (Simulation time: 1 hr 3 min 34 sec) 
Heartbeat CPU 0 instructions: 22000000 cycles: 43985245 heartbeat IPC: 0.435156 cumulative IPC: 0.318397 (Simulation time: 1 hr 6 min 51 sec) 
Heartbeat CPU 0 instructions: 23000001 cycles: 46203317 heartbeat IPC: 0.450842 cumulative IPC: 0.325759 (Simulation time: 1 hr 10 min 0 sec) 
Heartbeat CPU 0 instructions: 24000000 cycles: 48743911 heartbeat IPC: 0.393608 cumulative IPC: 0.32982 (Simulation time: 1 hr 13 min 31 sec) 
Heartbeat CPU 0 instructions: 25000000 cycles: 50790147 heartbeat IPC: 0.488702 cumulative IPC: 0.337127 (Simulation time: 1 hr 16 min 24 sec) 
Heartbeat CPU 0 instructions: 26000001 cycles: 52788946 heartbeat IPC: 0.500301 cumulative IPC: 0.344142 (Simulation time: 1 hr 19 min 15 sec) 
Heartbeat CPU 0 instructions: 27000002 cycles: 55245696 heartbeat IPC: 0.407042 cumulative IPC: 0.347299 (Simulation time: 1 hr 22 min 29 sec) 
Heartbeat CPU 0 instructions: 28000000 cycles: 58243514 heartbeat IPC: 0.333575 cumulative IPC: 0.346507 (Simulation time: 1 hr 25 min 58 sec) 
Heartbeat CPU 0 instructions: 29000000 cycles: 60773714 heartbeat IPC: 0.395226 cumulative IPC: 0.348769 (Simulation time: 1 hr 29 min 43 sec) 
Heartbeat CPU 0 instructions: 30000000 cycles: 62973192 heartbeat IPC: 0.454653 cumulative IPC: 0.352879 (Simulation time: 1 hr 33 min 4 sec) 
Heartbeat CPU 0 instructions: 31000001 cycles: 64970991 heartbeat IPC: 0.500551 cumulative IPC: 0.357907 (Simulation time: 1 hr 35 min 50 sec) 
Heartbeat CPU 0 instructions: 32000000 cycles: 66981616 heartbeat IPC: 0.497357 cumulative IPC: 0.362527 (Simulation time: 1 hr 38 min 44 sec) 
Heartbeat CPU 0 instructions: 33000003 cycles: 70005667 heartbeat IPC: 0.330683 cumulative IPC: 0.361015 (Simulation time: 1 hr 41 min 58 sec) 
Heartbeat CPU 0 instructions: 34000000 cycles: 73222918 heartbeat IPC: 0.310823 cumulative IPC: 0.358603 (Simulation time: 1 hr 45 min 18 sec) 
Heartbeat CPU 0 instructions: 35000000 cycles: 76375947 heartbeat IPC: 0.317155 cumulative IPC: 0.356738 (Simulation time: 1 hr 48 min 35 sec) 
Heartbeat CPU 0 instructions: 36000000 cycles: 79400393 heartbeat IPC: 0.330639 cumulative IPC: 0.355658 (Simulation time: 1 hr 51 min 44 sec) 
Heartbeat CPU 0 instructions: 37000002 cycles: 82871122 heartbeat IPC: 0.288124 cumulative IPC: 0.352597 (Simulation time: 1 hr 55 min 5 sec) 
Heartbeat CPU 0 instructions: 38000000 cycles: 86577165 heartbeat IPC: 0.269829 cumulative IPC: 0.348776 (Simulation time: 1 hr 58 min 19 sec) 
Heartbeat CPU 0 instructions: 39000001 cycles: 89775990 heartbeat IPC: 0.312615 cumulative IPC: 0.347391 (Simulation time: 2 hr 1 min 37 sec) 
Heartbeat CPU 0 instructions: 40000000 cycles: 92930428 heartbeat IPC: 0.317013 cumulative IPC: 0.346285 (Simulation time: 2 hr 5 min 36 sec) 
Heartbeat CPU 0 instructions: 41000002 cycles: 96694494 heartbeat IPC: 0.265671 cumulative IPC: 0.342928 (Simulation time: 2 hr 9 min 28 sec) 
Heartbeat CPU 0 instructions: 42000000 cycles: 99603540 heartbeat IPC: 0.343755 cumulative IPC: 0.342954 (Simulation time: 2 hr 13 min 17 sec) 
Heartbeat CPU 0 instructions: 43000002 cycles: 103288515 heartbeat IPC: 0.271373 cumulative IPC: 0.340234 (Simulation time: 2 hr 17 min 8 sec) 
Heartbeat CPU 0 instructions: 44000000 cycles: 106461272 heartbeat IPC: 0.315183 cumulative IPC: 0.339441 (Simulation time: 2 hr 21 min 3 sec) 
Heartbeat CPU 0 instructions: 45000001 cycles: 108146779 heartbeat IPC: 0.593294 cumulative IPC: 0.343642 (Simulation time: 2 hr 24 min 0 sec) 
Heartbeat CPU 0 instructions: 46000000 cycles: 110324024 heartbeat IPC: 0.459296 cumulative IPC: 0.346062 (Simulation time: 2 hr 26 min 49 sec) 
Heartbeat CPU 0 instructions: 47000002 cycles: 112243216 heartbeat IPC: 0.521054 cumulative IPC: 0.349232 (Simulation time: 2 hr 29 min 32 sec) 
Heartbeat CPU 0 instructions: 48000000 cycles: 114166018 heartbeat IPC: 0.520073 cumulative IPC: 0.352277 (Simulation time: 2 hr 32 min 47 sec) 
Heartbeat CPU 0 instructions: 49000000 cycles: 116916808 heartbeat IPC: 0.363532 cumulative IPC: 0.352557 (Simulation time: 2 hr 36 min 39 sec) 
Heartbeat CPU 0 instructions: 50000002 cycles: 118993254 heartbeat IPC: 0.481593 cumulative IPC: 0.354935 (Simulation time: 2 hr 39 min 52 sec) 
Heartbeat CPU 0 instructions: 51000000 cycles: 120944986 heartbeat IPC: 0.512364 cumulative IPC: 0.357615 (Simulation time: 2 hr 42 min 56 sec) 
Heartbeat CPU 0 instructions: 52000000 cycles: 122864876 heartbeat IPC: 0.520863 cumulative IPC: 0.360303 (Simulation time: 2 hr 46 min 3 sec) 
Heartbeat CPU 0 instructions: 53000002 cycles: 124857800 heartbeat IPC: 0.501776 cumulative IPC: 0.362681 (Simulation time: 2 hr 49 min 9 sec) 
Heartbeat CPU 0 instructions: 54000000 cycles: 128695730 heartbeat IPC: 0.260557 cumulative IPC: 0.359479 (Simulation time: 2 hr 52 min 57 sec) 
Heartbeat CPU 0 instructions: 55000000 cycles: 131689198 heartbeat IPC: 0.334061 cumulative IPC: 0.358872 (Simulation time: 2 hr 56 min 43 sec) 
Heartbeat CPU 0 instructions: 56000000 cycles: 135005583 heartbeat IPC: 0.301533 cumulative IPC: 0.357395 (Simulation time: 3 hr 0 min 28 sec) 
Heartbeat CPU 0 instructions: 57000001 cycles: 138835514 heartbeat IPC: 0.261102 cumulative IPC: 0.354612 (Simulation time: 3 hr 4 min 23 sec) 
Heartbeat CPU 0 instructions: 58000003 cycles: 141957220 heartbeat IPC: 0.320338 cumulative IPC: 0.353824 (Simulation time: 3 hr 9 min 2 sec) 
Heartbeat CPU 0 instructions: 59000002 cycles: 145079011 heartbeat IPC: 0.320329 cumulative IPC: 0.35307 (Simulation time: 3 hr 12 min 38 sec) 
Heartbeat CPU 0 instructions: 60000000 cycles: 148158492 heartbeat IPC: 0.324729 cumulative IPC: 0.352455 (Simulation time: 3 hr 16 min 33 sec) 
Heartbeat CPU 0 instructions: 61000002 cycles: 151134316 heartbeat IPC: 0.336042 cumulative IPC: 0.352118 (Simulation time: 3 hr 20 min 14 sec) 
Heartbeat CPU 0 instructions: 62000002 cycles: 154217080 heartbeat IPC: 0.324384 cumulative IPC: 0.35154 (Simulation time: 3 hr 24 min 9 sec) 
Heartbeat CPU 0 instructions: 63000001 cycles: 157234790 heartbeat IPC: 0.331377 cumulative IPC: 0.351137 (Simulation time: 3 hr 27 min 58 sec) 
Heartbeat CPU 0 instructions: 64000000 cycles: 160203126 heartbeat IPC: 0.336889 cumulative IPC: 0.350862 (Simulation time: 3 hr 31 min 43 sec) 
Heartbeat CPU 0 instructions: 65000003 cycles: 163131540 heartbeat IPC: 0.341483 cumulative IPC: 0.350687 (Simulation time: 3 hr 35 min 32 sec) 
Heartbeat CPU 0 instructions: 66000001 cycles: 166071138 heartbeat IPC: 0.340182 cumulative IPC: 0.350494 (Simulation time: 3 hr 39 min 15 sec) 
Heartbeat CPU 0 instructions: 67000001 cycles: 168798516 heartbeat IPC: 0.366653 cumulative IPC: 0.350765 (Simulation time: 3 hr 43 min 0 sec) 
Heartbeat CPU 0 instructions: 68000000 cycles: 171816391 heartbeat IPC: 0.331359 cumulative IPC: 0.350411 (Simulation time: 3 hr 46 min 40 sec) 
Heartbeat CPU 0 instructions: 69000001 cycles: 174781699 heartbeat IPC: 0.337233 cumulative IPC: 0.350179 (Simulation time: 3 hr 50 min 18 sec) 
Heartbeat CPU 0 instructions: 70000001 cycles: 177736435 heartbeat IPC: 0.33844 cumulative IPC: 0.349977 (Simulation time: 3 hr 53 min 55 sec) 
Heartbeat CPU 0 instructions: 71000001 cycles: 180583843 heartbeat IPC: 0.351197 cumulative IPC: 0.349997 (Simulation time: 3 hr 58 min 11 sec) 
Heartbeat CPU 0 instructions: 72000000 cycles: 183422449 heartbeat IPC: 0.352285 cumulative IPC: 0.350033 (Simulation time: 4 hr 2 min 19 sec) 
Heartbeat CPU 0 instructions: 73000002 cycles: 186642512 heartbeat IPC: 0.310554 cumulative IPC: 0.349328 (Simulation time: 4 hr 6 min 12 sec) 
Heartbeat CPU 0 instructions: 74000001 cycles: 189657828 heartbeat IPC: 0.33164 cumulative IPC: 0.349038 (Simulation time: 4 hr 9 min 50 sec) 
Heartbeat CPU 0 instructions: 75000001 cycles: 192783218 heartbeat IPC: 0.31996 cumulative IPC: 0.34855 (Simulation time: 4 hr 13 min 27 sec) 
Heartbeat CPU 0 instructions: 76000000 cycles: 195818656 heartbeat IPC: 0.329441 cumulative IPC: 0.348244 (Simulation time: 4 hr 17 min 7 sec) 
Heartbeat CPU 0 instructions: 77000002 cycles: 198869094 heartbeat IPC: 0.327822 cumulative IPC: 0.347921 (Simulation time: 4 hr 20 min 40 sec) 
Heartbeat CPU 0 instructions: 78000000 cycles: 201865506 heartbeat IPC: 0.333732 cumulative IPC: 0.347703 (Simulation time: 4 hr 23 min 59 sec) 
Heartbeat CPU 0 instructions: 79000001 cycles: 204867644 heartbeat IPC: 0.333096 cumulative IPC: 0.347482 (Simulation time: 4 hr 27 min 2 sec) 
Heartbeat CPU 0 instructions: 80000000 cycles: 207854408 heartbeat IPC: 0.33481 cumulative IPC: 0.347295 (Simulation time: 4 hr 29 min 48 sec) 
Heartbeat CPU 0 instructions: 81000000 cycles: 210679824 heartbeat IPC: 0.35393 cumulative IPC: 0.347386 (Simulation time: 4 hr 32 min 27 sec) 
Heartbeat CPU 0 instructions: 82000002 cycles: 213746617 heartbeat IPC: 0.326074 cumulative IPC: 0.347071 (Simulation time: 4 hr 34 min 52 sec) 
Heartbeat CPU 0 instructions: 83000000 cycles: 216719682 heartbeat IPC: 0.336353 cumulative IPC: 0.34692 (Simulation time: 4 hr 37 min 14 sec) 
Heartbeat CPU 0 instructions: 84000000 cycles: 219828402 heartbeat IPC: 0.321676 cumulative IPC: 0.346552 (Simulation time: 4 hr 39 min 26 sec) 
Heartbeat CPU 0 instructions: 85000001 cycles: 222686685 heartbeat IPC: 0.349861 cumulative IPC: 0.346596 (Simulation time: 4 hr 41 min 48 sec) 
Heartbeat CPU 0 instructions: 86000000 cycles: 225245147 heartbeat IPC: 0.390859 cumulative IPC: 0.347113 (Simulation time: 4 hr 44 min 6 sec) 
Heartbeat CPU 0 instructions: 87000000 cycles: 227517684 heartbeat IPC: 0.440037 cumulative IPC: 0.348068 (Simulation time: 4 hr 45 min 48 sec) 
Heartbeat CPU 0 instructions: 88000000 cycles: 229542124 heartbeat IPC: 0.493964 cumulative IPC: 0.349391 (Simulation time: 4 hr 47 min 27 sec) 
Heartbeat CPU 0 instructions: 89000001 cycles: 231738831 heartbeat IPC: 0.455227 cumulative IPC: 0.350422 (Simulation time: 4 hr 48 min 52 sec) 
Heartbeat CPU 0 instructions: 90000000 cycles: 234797430 heartbeat IPC: 0.326947 cumulative IPC: 0.350108 (Simulation time: 4 hr 50 min 34 sec) 
Heartbeat CPU 0 instructions: 91000001 cycles: 237948168 heartbeat IPC: 0.317386 cumulative IPC: 0.349663 (Simulation time: 4 hr 52 min 20 sec) 
Heartbeat CPU 0 instructions: 92000000 cycles: 240996712 heartbeat IPC: 0.328025 cumulative IPC: 0.349382 (Simulation time: 4 hr 53 min 30 sec) 
Heartbeat CPU 0 instructions: 93000000 cycles: 244121206 heartbeat IPC: 0.320052 cumulative IPC: 0.348996 (Simulation time: 4 hr 54 min 40 sec) 
Heartbeat CPU 0 instructions: 94000002 cycles: 247103548 heartbeat IPC: 0.335308 cumulative IPC: 0.348827 (Simulation time: 4 hr 55 min 47 sec) 
Heartbeat CPU 0 instructions: 95000000 cycles: 250078958 heartbeat IPC: 0.336087 cumulative IPC: 0.348671 (Simulation time: 4 hr 56 min 44 sec) 
Heartbeat CPU 0 instructions: 96000000 cycles: 253086396 heartbeat IPC: 0.332509 cumulative IPC: 0.348475 (Simulation time: 4 hr 57 min 31 sec) 
Heartbeat CPU 0 instructions: 97000000 cycles: 256027296 heartbeat IPC: 0.340032 cumulative IPC: 0.348375 (Simulation time: 4 hr 58 min 16 sec) 
Heartbeat CPU 0 instructions: 98000000 cycles: 258926836 heartbeat IPC: 0.344882 cumulative IPC: 0.348335 (Simulation time: 4 hr 58 min 57 sec) 
Heartbeat CPU 0 instructions: 99000002 cycles: 261863496 heartbeat IPC: 0.340524 cumulative IPC: 0.348245 (Simulation time: 4 hr 59 min 28 sec) 
Heartbeat CPU 0 instructions: 100000000 cycles: 264753677 heartbeat IPC: 0.345998 cumulative IPC: 0.34822 (Simulation time: 4 hr 59 min 55 sec) 
Heartbeat CPU 0 instructions: 101000002 cycles: 267709391 heartbeat IPC: 0.338328 cumulative IPC: 0.348108 (Simulation time: 5 hr 0 min 23 sec) 
Heartbeat CPU 0 instructions: 102000000 cycles: 270767078 heartbeat IPC: 0.327044 cumulative IPC: 0.347865 (Simulation time: 5 hr 0 min 48 sec) 
Heartbeat CPU 0 instructions: 103000000 cycles: 273621456 heartbeat IPC: 0.350339 cumulative IPC: 0.347891 (Simulation time: 5 hr 1 min 9 sec) 
Heartbeat CPU 0 instructions: 104000000 cycles: 276376848 heartbeat IPC: 0.362925 cumulative IPC: 0.348045 (Simulation time: 5 hr 1 min 35 sec) 
Heartbeat CPU 0 instructions: 105000003 cycles: 278675128 heartbeat IPC: 0.435109 cumulative IPC: 0.348779 (Simulation time: 5 hr 1 min 53 sec) 
Heartbeat CPU 0 instructions: 106000000 cycles: 280678866 heartbeat IPC: 0.499066 cumulative IPC: 0.349877 (Simulation time: 5 hr 2 min 8 sec) 
Heartbeat CPU 0 instructions: 107000003 cycles: 282690627 heartbeat IPC: 0.497078 cumulative IPC: 0.350948 (Simulation time: 5 hr 2 min 22 sec) 
Heartbeat CPU 0 instructions: 108000000 cycles: 286079363 heartbeat IPC: 0.295094 cumulative IPC: 0.350272 (Simulation time: 5 hr 2 min 37 sec) 
Heartbeat CPU 0 instructions: 109000001 cycles: 289290936 heartbeat IPC: 0.311374 cumulative IPC: 0.34983 (Simulation time: 5 hr 2 min 51 sec) 
Heartbeat CPU 0 instructions: 110000000 cycles: 292383455 heartbeat IPC: 0.323361 cumulative IPC: 0.349544 (Simulation time: 5 hr 3 min 7 sec) 
Finished CPU 0 instructions: 100000000 cycles: 286086989 cummulative IPC: 0.349544 (Simulation time: 5 hr 3 min 7 sec) 

ChampSim completed all CPUs

Region of Interest Statistics

CPU 0 cummulative IPC: 0.349544 instructions: 100000000 cycles: 286086989
LLC TOTAL     ACCESS:     656571  HIT:          0  MISS:     656571
LLC LOAD      ACCESS:     310774  HIT:          0  MISS:     310774
LLC RFO       ACCESS:      30800  HIT:          0  MISS:      30800
LLC PREFETCH  ACCESS:     212721  HIT:          0  MISS:     212721
LLC WRITEBACK ACCESS:     102276  HIT:          0  MISS:     102276
