
*** ChampSim Multicore Out-of-Order Simulator ***

Warmup Instructions: 10000000
Simulation Instructions: 100000000
Configuration: 2
Number of CPUs: 1
LLC sets: 2048
LLC ways: 16
Off-chip DRAM Channels: 1 Width: 64-bit Data Rate: 1600 MT/s

CPU 0 runs /datasets/cs240c-wi22-a00-public/data/Assignment2-gz/mcf_158B.trace.gz
CPU 0 L1D next line prefetcher
CPU 0 L2C IP-based stride prefetcher
Initialize SRRIP state
Heartbeat CPU 0 instructions: 1000002 cycles: 512325 heartbeat IPC: 1.95189 cumulative IPC: 1.95189 (Simulation time: 0 hr 2 min 2 sec) 
Heartbeat CPU 0 instructions: 2000002 cycles: 1023834 heartbeat IPC: 1.955 cumulative IPC: 1.95344 (Simulation time: 0 hr 4 min 4 sec) 
Heartbeat CPU 0 instructions: 3000000 cycles: 1536970 heartbeat IPC: 1.9488 cumulative IPC: 1.95189 (Simulation time: 0 hr 6 min 6 sec) 
Heartbeat CPU 0 instructions: 4000000 cycles: 2048487 heartbeat IPC: 1.95497 cumulative IPC: 1.95266 (Simulation time: 0 hr 8 min 9 sec) 
Heartbeat CPU 0 instructions: 5000002 cycles: 2556828 heartbeat IPC: 1.96719 cumulative IPC: 1.95555 (Simulation time: 0 hr 10 min 5 sec) 
Heartbeat CPU 0 instructions: 6000001 cycles: 3070110 heartbeat IPC: 1.94824 cumulative IPC: 1.95433 (Simulation time: 0 hr 12 min 6 sec) 
Heartbeat CPU 0 instructions: 7000001 cycles: 3579363 heartbeat IPC: 1.96366 cumulative IPC: 1.95566 (Simulation time: 0 hr 14 min 2 sec) 
Heartbeat CPU 0 instructions: 8000000 cycles: 4090385 heartbeat IPC: 1.95686 cumulative IPC: 1.95581 (Simulation time: 0 hr 16 min 2 sec) 
Heartbeat CPU 0 instructions: 9000000 cycles: 4609603 heartbeat IPC: 1.92597 cumulative IPC: 1.95245 (Simulation time: 0 hr 17 min 57 sec) 
Heartbeat CPU 0 instructions: 10000001 cycles: 5143551 heartbeat IPC: 1.87284 cumulative IPC: 1.94418 (Simulation time: 0 hr 19 min 49 sec) 

Warmup complete CPU 0 instructions: 10000001 cycles: 5143551 (Simulation time: 0 hr 19 min 49 sec) 

Heartbeat CPU 0 instructions: 11000001 cycles: 14787086 heartbeat IPC: 0.103696 cumulative IPC: 0.103696 (Simulation time: 0 hr 22 min 37 sec) 
Heartbeat CPU 0 instructions: 12000000 cycles: 24071859 heartbeat IPC: 0.107703 cumulative IPC: 0.105662 (Simulation time: 0 hr 25 min 24 sec) 
Heartbeat CPU 0 instructions: 13000001 cycles: 33163621 heartbeat IPC: 0.10999 cumulative IPC: 0.107066 (Simulation time: 0 hr 27 min 59 sec) 
Heartbeat CPU 0 instructions: 14000001 cycles: 41472168 heartbeat IPC: 0.120358 cumulative IPC: 0.110106 (Simulation time: 0 hr 30 min 30 sec) 
Heartbeat CPU 0 instructions: 15000000 cycles: 50059483 heartbeat IPC: 0.116451 cumulative IPC: 0.111319 (Simulation time: 0 hr 33 min 4 sec) 
Heartbeat CPU 0 instructions: 16000000 cycles: 65487970 heartbeat IPC: 0.0648152 cumulative IPC: 0.0994292 (Simulation time: 0 hr 36 min 33 sec) 
Heartbeat CPU 0 instructions: 17000001 cycles: 75923043 heartbeat IPC: 0.0958308 cumulative IPC: 0.0988987 (Simulation time: 0 hr 39 min 21 sec) 
Heartbeat CPU 0 instructions: 18000000 cycles: 85052803 heartbeat IPC: 0.109532 cumulative IPC: 0.100114 (Simulation time: 0 hr 41 min 57 sec) 
Heartbeat CPU 0 instructions: 19000001 cycles: 94536788 heartbeat IPC: 0.105441 cumulative IPC: 0.100679 (Simulation time: 0 hr 44 min 37 sec) 
Heartbeat CPU 0 instructions: 20000000 cycles: 103765976 heartbeat IPC: 0.108352 cumulative IPC: 0.101397 (Simulation time: 0 hr 47 min 14 sec) 
Heartbeat CPU 0 instructions: 21000000 cycles: 113020742 heartbeat IPC: 0.108052 cumulative IPC: 0.101968 (Simulation time: 0 hr 49 min 59 sec) 
Heartbeat CPU 0 instructions: 22000002 cycles: 122024488 heartbeat IPC: 0.111065 cumulative IPC: 0.102669 (Simulation time: 0 hr 52 min 42 sec) 
Heartbeat CPU 0 instructions: 23000002 cycles: 132444010 heartbeat IPC: 0.0959737 cumulative IPC: 0.102121 (Simulation time: 0 hr 55 min 38 sec) 
Heartbeat CPU 0 instructions: 24000000 cycles: 147741921 heartbeat IPC: 0.0653683 cumulative IPC: 0.0981778 (Simulation time: 0 hr 59 min 13 sec) 
Heartbeat CPU 0 instructions: 25000000 cycles: 155784517 heartbeat IPC: 0.124338 cumulative IPC: 0.0995745 (Simulation time: 1 hr 1 min 55 sec) 
Heartbeat CPU 0 instructions: 26000000 cycles: 162830499 heartbeat IPC: 0.141925 cumulative IPC: 0.101467 (Simulation time: 1 hr 4 min 26 sec) 
Heartbeat CPU 0 instructions: 27000002 cycles: 170333352 heartbeat IPC: 0.133283 cumulative IPC: 0.102912 (Simulation time: 1 hr 6 min 52 sec) 
Heartbeat CPU 0 instructions: 28000000 cycles: 185664109 heartbeat IPC: 0.0652282 cumulative IPC: 0.0997116 (Simulation time: 1 hr 10 min 28 sec) 
Heartbeat CPU 0 instructions: 29000002 cycles: 194434592 heartbeat IPC: 0.114019 cumulative IPC: 0.100375 (Simulation time: 1 hr 13 min 11 sec) 
Heartbeat CPU 0 instructions: 30000003 cycles: 200742666 heartbeat IPC: 0.158527 cumulative IPC: 0.10225 (Simulation time: 1 hr 15 min 29 sec) 
Heartbeat CPU 0 instructions: 31000003 cycles: 208484859 heartbeat IPC: 0.129162 cumulative IPC: 0.103275 (Simulation time: 1 hr 18 min 1 sec) 
Heartbeat CPU 0 instructions: 32000000 cycles: 223798870 heartbeat IPC: 0.0652995 cumulative IPC: 0.100615 (Simulation time: 1 hr 21 min 40 sec) 
Heartbeat CPU 0 instructions: 33000000 cycles: 231103142 heartbeat IPC: 0.136906 cumulative IPC: 0.101788 (Simulation time: 1 hr 24 min 5 sec) 
Heartbeat CPU 0 instructions: 34000000 cycles: 238303429 heartbeat IPC: 0.138883 cumulative IPC: 0.102934 (Simulation time: 1 hr 26 min 31 sec) 
Heartbeat CPU 0 instructions: 35000001 cycles: 246281245 heartbeat IPC: 0.125348 cumulative IPC: 0.103675 (Simulation time: 1 hr 29 min 0 sec) 
Heartbeat CPU 0 instructions: 36000000 cycles: 261708276 heartbeat IPC: 0.0648212 cumulative IPC: 0.101339 (Simulation time: 1 hr 32 min 45 sec) 
Heartbeat CPU 0 instructions: 37000001 cycles: 269371864 heartbeat IPC: 0.130487 cumulative IPC: 0.102184 (Simulation time: 1 hr 35 min 14 sec) 
Heartbeat CPU 0 instructions: 38000000 cycles: 276910380 heartbeat IPC: 0.132652 cumulative IPC: 0.103029 (Simulation time: 1 hr 37 min 35 sec) 
Heartbeat CPU 0 instructions: 39000000 cycles: 283420189 heartbeat IPC: 0.153614 cumulative IPC: 0.104213 (Simulation time: 1 hr 39 min 58 sec) 
Heartbeat CPU 0 instructions: 40000000 cycles: 298043556 heartbeat IPC: 0.0683837 cumulative IPC: 0.102424 (Simulation time: 1 hr 43 min 27 sec) 
Heartbeat CPU 0 instructions: 41000003 cycles: 307036268 heartbeat IPC: 0.111201 cumulative IPC: 0.102685 (Simulation time: 1 hr 46 min 3 sec) 
Heartbeat CPU 0 instructions: 42000000 cycles: 313514648 heartbeat IPC: 0.154359 cumulative IPC: 0.103771 (Simulation time: 1 hr 48 min 22 sec) 
Heartbeat CPU 0 instructions: 43000001 cycles: 323927787 heartbeat IPC: 0.0960326 cumulative IPC: 0.103518 (Simulation time: 1 hr 51 min 16 sec) 
Heartbeat CPU 0 instructions: 44000000 cycles: 336414963 heartbeat IPC: 0.0800821 cumulative IPC: 0.102635 (Simulation time: 1 hr 54 min 32 sec) 
Heartbeat CPU 0 instructions: 45000000 cycles: 342628015 heartbeat IPC: 0.160951 cumulative IPC: 0.103708 (Simulation time: 1 hr 56 min 46 sec) 
Heartbeat CPU 0 instructions: 46000002 cycles: 352330467 heartbeat IPC: 0.103067 cumulative IPC: 0.103691 (Simulation time: 1 hr 59 min 33 sec) 
Heartbeat CPU 0 instructions: 47000002 cycles: 364660091 heartbeat IPC: 0.0811055 cumulative IPC: 0.102916 (Simulation time: 2 hr 2 min 41 sec) 
Heartbeat CPU 0 instructions: 48000000 cycles: 370973354 heartbeat IPC: 0.158396 cumulative IPC: 0.103873 (Simulation time: 2 hr 4 min 55 sec) 
Heartbeat CPU 0 instructions: 49000003 cycles: 380624357 heartbeat IPC: 0.103616 cumulative IPC: 0.103867 (Simulation time: 2 hr 7 min 39 sec) 
Heartbeat CPU 0 instructions: 50000000 cycles: 392620434 heartbeat IPC: 0.0833603 cumulative IPC: 0.103232 (Simulation time: 2 hr 10 min 48 sec) 
Heartbeat CPU 0 instructions: 51000000 cycles: 398100557 heartbeat IPC: 0.182478 cumulative IPC: 0.104337 (Simulation time: 2 hr 12 min 54 sec) 
Heartbeat CPU 0 instructions: 52000000 cycles: 407109163 heartbeat IPC: 0.111005 cumulative IPC: 0.104487 (Simulation time: 2 hr 15 min 22 sec) 
Heartbeat CPU 0 instructions: 53000000 cycles: 420819366 heartbeat IPC: 0.0729384 cumulative IPC: 0.103446 (Simulation time: 2 hr 18 min 29 sec) 
Heartbeat CPU 0 instructions: 54000000 cycles: 426762969 heartbeat IPC: 0.168248 cumulative IPC: 0.10436 (Simulation time: 2 hr 20 min 27 sec) 
Heartbeat CPU 0 instructions: 55000000 cycles: 434117641 heartbeat IPC: 0.135968 cumulative IPC: 0.104901 (Simulation time: 2 hr 22 min 42 sec) 
Heartbeat CPU 0 instructions: 56000000 cycles: 448814022 heartbeat IPC: 0.068044 cumulative IPC: 0.103681 (Simulation time: 2 hr 25 min 42 sec) 
Heartbeat CPU 0 instructions: 57000001 cycles: 455162091 heartbeat IPC: 0.157528 cumulative IPC: 0.10444 (Simulation time: 2 hr 27 min 22 sec) 
Heartbeat CPU 0 instructions: 58000001 cycles: 460849940 heartbeat IPC: 0.175813 cumulative IPC: 0.105331 (Simulation time: 2 hr 28 min 55 sec) 
Heartbeat CPU 0 instructions: 59000000 cycles: 476816251 heartbeat IPC: 0.0626318 cumulative IPC: 0.103886 (Simulation time: 2 hr 31 min 10 sec) 
Heartbeat CPU 0 instructions: 60000000 cycles: 483059144 heartbeat IPC: 0.160182 cumulative IPC: 0.104621 (Simulation time: 2 hr 32 min 29 sec) 
Heartbeat CPU 0 instructions: 61000000 cycles: 489369141 heartbeat IPC: 0.158479 cumulative IPC: 0.105323 (Simulation time: 2 hr 33 min 43 sec) 
Heartbeat CPU 0 instructions: 62000001 cycles: 501707924 heartbeat IPC: 0.0810454 cumulative IPC: 0.10472 (Simulation time: 2 hr 35 min 28 sec) 
Heartbeat CPU 0 instructions: 63000001 cycles: 511547340 heartbeat IPC: 0.101632 cumulative IPC: 0.10466 (Simulation time: 2 hr 36 min 55 sec) 
Heartbeat CPU 0 instructions: 64000000 cycles: 517154478 heartbeat IPC: 0.178344 cumulative IPC: 0.105466 (Simulation time: 2 hr 38 min 5 sec) 
Heartbeat CPU 0 instructions: 65000000 cycles: 524140661 heartbeat IPC: 0.14314 cumulative IPC: 0.105974 (Simulation time: 2 hr 39 min 15 sec) 
Heartbeat CPU 0 instructions: 66000000 cycles: 539378931 heartbeat IPC: 0.0656242 cumulative IPC: 0.104823 (Simulation time: 2 hr 40 min 46 sec) 
Heartbeat CPU 0 instructions: 67000002 cycles: 545130141 heartbeat IPC: 0.173877 cumulative IPC: 0.105558 (Simulation time: 2 hr 41 min 44 sec) 
Heartbeat CPU 0 instructions: 68000000 cycles: 550638411 heartbeat IPC: 0.181545 cumulative IPC: 0.106325 (Simulation time: 2 hr 42 min 36 sec) 
Heartbeat CPU 0 instructions: 69000000 cycles: 564116027 heartbeat IPC: 0.0741971 cumulative IPC: 0.105551 (Simulation time: 2 hr 43 min 52 sec) 
Heartbeat CPU 0 instructions: 70000000 cycles: 573138799 heartbeat IPC: 0.110831 cumulative IPC: 0.105635 (Simulation time: 2 hr 44 min 50 sec) 
Heartbeat CPU 0 instructions: 71000002 cycles: 578639986 heartbeat IPC: 0.181779 cumulative IPC: 0.106365 (Simulation time: 2 hr 45 min 34 sec) 
Heartbeat CPU 0 instructions: 72000000 cycles: 586350872 heartbeat IPC: 0.129687 cumulative IPC: 0.106674 (Simulation time: 2 hr 46 min 20 sec) 
Heartbeat CPU 0 instructions: 73000000 cycles: 600813185 heartbeat IPC: 0.0691452 cumulative IPC: 0.105763 (Simulation time: 2 hr 47 min 19 sec) 
Heartbeat CPU 0 instructions: 74000000 cycles: 606454182 heartbeat IPC: 0.177274 cumulative IPC: 0.106434 (Simulation time: 2 hr 47 min 58 sec) 
Heartbeat CPU 0 instructions: 75000001 cycles: 612314080 heartbeat IPC: 0.170652 cumulative IPC: 0.107054 (Simulation time: 2 hr 48 min 35 sec) 
Heartbeat CPU 0 instructions: 76000000 cycles: 624675139 heartbeat IPC: 0.0808991 cumulative IPC: 0.106532 (Simulation time: 2 hr 49 min 25 sec) 
Heartbeat CPU 0 instructions: 77000000 cycles: 635396042 heartbeat IPC: 0.0932757 cumulative IPC: 0.106307 (Simulation time: 2 hr 50 min 8 sec) 
Heartbeat CPU 0 instructions: 78000000 cycles: 641830768 heartbeat IPC: 0.155407 cumulative IPC: 0.106803 (Simulation time: 2 hr 50 min 38 sec) 
Heartbeat CPU 0 instructions: 79000001 cycles: 648896028 heartbeat IPC: 0.141538 cumulative IPC: 0.107184 (Simulation time: 2 hr 51 min 7 sec) 
Heartbeat CPU 0 instructions: 80000000 cycles: 664914427 heartbeat IPC: 0.0624282 cumulative IPC: 0.106097 (Simulation time: 2 hr 51 min 43 sec) 
Heartbeat CPU 0 instructions: 81000001 cycles: 671876570 heartbeat IPC: 0.143634 cumulative IPC: 0.106489 (Simulation time: 2 hr 52 min 3 sec) 
Heartbeat CPU 0 instructions: 82000001 cycles: 678638302 heartbeat IPC: 0.147891 cumulative IPC: 0.106905 (Simulation time: 2 hr 52 min 21 sec) 
Heartbeat CPU 0 instructions: 83000001 cycles: 691787313 heartbeat IPC: 0.0760513 cumulative IPC: 0.106314 (Simulation time: 2 hr 52 min 42 sec) 
Heartbeat CPU 0 instructions: 84000000 cycles: 703069421 heartbeat IPC: 0.0886358 cumulative IPC: 0.106028 (Simulation time: 2 hr 52 min 59 sec) 
Heartbeat CPU 0 instructions: 85000000 cycles: 708846801 heartbeat IPC: 0.173089 cumulative IPC: 0.106579 (Simulation time: 2 hr 53 min 10 sec) 
Heartbeat CPU 0 instructions: 86000000 cycles: 716378719 heartbeat IPC: 0.132768 cumulative IPC: 0.106856 (Simulation time: 2 hr 53 min 22 sec) 
Heartbeat CPU 0 instructions: 87000000 cycles: 731612525 heartbeat IPC: 0.0656435 cumulative IPC: 0.105992 (Simulation time: 2 hr 53 min 39 sec) 
Heartbeat CPU 0 instructions: 88000000 cycles: 738115306 heartbeat IPC: 0.15378 cumulative IPC: 0.106416 (Simulation time: 2 hr 53 min 50 sec) 
Heartbeat CPU 0 instructions: 89000000 cycles: 744908498 heartbeat IPC: 0.147206 cumulative IPC: 0.106791 (Simulation time: 2 hr 54 min 1 sec) 
Heartbeat CPU 0 instructions: 90000002 cycles: 758868769 heartbeat IPC: 0.071632 cumulative IPC: 0.106139 (Simulation time: 2 hr 54 min 17 sec) 
Heartbeat CPU 0 instructions: 91000000 cycles: 767991807 heartbeat IPC: 0.109612 cumulative IPC: 0.106181 (Simulation time: 2 hr 54 min 28 sec) 
Heartbeat CPU 0 instructions: 92000000 cycles: 774710012 heartbeat IPC: 0.148849 cumulative IPC: 0.106554 (Simulation time: 2 hr 54 min 38 sec) 
Heartbeat CPU 0 instructions: 93000003 cycles: 785835014 heartbeat IPC: 0.0898879 cumulative IPC: 0.106316 (Simulation time: 2 hr 54 min 50 sec) 
Heartbeat CPU 0 instructions: 94000000 cycles: 798146135 heartbeat IPC: 0.0812271 cumulative IPC: 0.105927 (Simulation time: 2 hr 55 min 1 sec) 
Heartbeat CPU 0 instructions: 95000000 cycles: 804535438 heartbeat IPC: 0.156512 cumulative IPC: 0.106331 (Simulation time: 2 hr 55 min 8 sec) 
Heartbeat CPU 0 instructions: 96000000 cycles: 811870462 heartbeat IPC: 0.136332 cumulative IPC: 0.106604 (Simulation time: 2 hr 55 min 15 sec) 
Heartbeat CPU 0 instructions: 97000003 cycles: 828078393 heartbeat IPC: 0.0616984 cumulative IPC: 0.105719 (Simulation time: 2 hr 55 min 25 sec) 
Heartbeat CPU 0 instructions: 98000002 cycles: 834943828 heartbeat IPC: 0.145657 cumulative IPC: 0.10605 (Simulation time: 2 hr 55 min 31 sec) 
Heartbeat CPU 0 instructions: 99000000 cycles: 841415395 heartbeat IPC: 0.154522 cumulative IPC: 0.106425 (Simulation time: 2 hr 55 min 36 sec) 
Heartbeat CPU 0 instructions: 100000000 cycles: 855211214 heartbeat IPC: 0.0724857 cumulative IPC: 0.105874 (Simulation time: 2 hr 55 min 43 sec) 
Heartbeat CPU 0 instructions: 101000000 cycles: 865366745 heartbeat IPC: 0.0984685 cumulative IPC: 0.105786 (Simulation time: 2 hr 55 min 50 sec) 
Heartbeat CPU 0 instructions: 102000000 cycles: 872640498 heartbeat IPC: 0.137481 cumulative IPC: 0.106052 (Simulation time: 2 hr 55 min 56 sec) 
Heartbeat CPU 0 instructions: 103000001 cycles: 879006651 heartbeat IPC: 0.157081 cumulative IPC: 0.106424 (Simulation time: 2 hr 56 min 2 sec) 
Heartbeat CPU 0 instructions: 104000000 cycles: 894851551 heartbeat IPC: 0.0631117 cumulative IPC: 0.105653 (Simulation time: 2 hr 56 min 12 sec) 
Heartbeat CPU 0 instructions: 105000000 cycles: 902466138 heartbeat IPC: 0.131327 cumulative IPC: 0.105871 (Simulation time: 2 hr 56 min 19 sec) 
Heartbeat CPU 0 instructions: 106000000 cycles: 909654267 heartbeat IPC: 0.139118 cumulative IPC: 0.106135 (Simulation time: 2 hr 56 min 25 sec) 
Heartbeat CPU 0 instructions: 107000000 cycles: 919342134 heartbeat IPC: 0.103222 cumulative IPC: 0.106104 (Simulation time: 2 hr 56 min 32 sec) 
Heartbeat CPU 0 instructions: 108000000 cycles: 933435050 heartbeat IPC: 0.0709576 cumulative IPC: 0.10557 (Simulation time: 2 hr 56 min 39 sec) 
Heartbeat CPU 0 instructions: 109000000 cycles: 940762384 heartbeat IPC: 0.136475 cumulative IPC: 0.105812 (Simulation time: 2 hr 56 min 45 sec) 
Heartbeat CPU 0 instructions: 110000000 cycles: 947956843 heartbeat IPC: 0.138996 cumulative IPC: 0.106066 (Simulation time: 2 hr 56 min 50 sec) 
Finished CPU 0 instructions: 100000002 cycles: 942813294 cummulative IPC: 0.106066 (Simulation time: 2 hr 56 min 50 sec) 

ChampSim completed all CPUs

Region of Interest Statistics

CPU 0 cummulative IPC: 0.106066 instructions: 100000002 cycles: 942813294
LLC TOTAL     ACCESS:   21079489  HIT:    9107169  MISS:   11972320
LLC LOAD      ACCESS:    9506832  HIT:    5596831  MISS:    3910001
LLC RFO       ACCESS:     164370  HIT:      68674  MISS:      95696
LLC PREFETCH  ACCESS:    9645278  HIT:    2291377  MISS:    7353901
LLC WRITEBACK ACCESS:    1763009  HIT:    1150287  MISS:     612722
Insertion Distribution: 
	LOAD 427066 0 0 0 0 0 0 0 0 0 0 0 0 0 0 0 0 0 0 0 0 0 0 0 0 0 0 0 0 0 307695 3519802 
	RFO 9942 0 0 0 0 0 0 0 0 0 0 0 0 0 0 0 0 0 0 0 0 0 0 0 0 0 0 0 0 0 9003 80162 
	PREF 0 719594 0 0 0 0 0 0 0 0 0 0 0 0 0 0 0 0 0 0 0 0 0 0 0 0 0 0 0 0 1595376 6239655 
	WRITEBACK 0 0 0 0 0 0 0 0 0 0 0 0 0 0 0 0 0 0 0 0 0 0 0 0 0 0 0 0 0 0 0 642034 
Total Prefetch Downgrades: 1012366
