
*** ChampSim Multicore Out-of-Order Simulator ***

Warmup Instructions: 10000000
Simulation Instructions: 100000000
Configuration: 2
Number of CPUs: 1
LLC sets: 2048
LLC ways: 16
Off-chip DRAM Channels: 1 Width: 64-bit Data Rate: 1600 MT/s

CPU 0 runs /datasets/cs240c-wi22-a00-public/data/Assignment2-gz/omnetpp_17B.trace.gz
CPU 0 L1D next line prefetcher
CPU 0 L2C IP-based stride prefetcher
Initialize SRRIP state
Heartbeat CPU 0 instructions: 1000000 cycles: 559549 heartbeat IPC: 1.78715 cumulative IPC: 1.78715 (Simulation time: 0 hr 1 min 28 sec) 
Heartbeat CPU 0 instructions: 2000002 cycles: 1133688 heartbeat IPC: 1.74174 cumulative IPC: 1.76416 (Simulation time: 0 hr 2 min 55 sec) 
Heartbeat CPU 0 instructions: 3000001 cycles: 1768996 heartbeat IPC: 1.57404 cumulative IPC: 1.69588 (Simulation time: 0 hr 4 min 16 sec) 
Heartbeat CPU 0 instructions: 4000000 cycles: 2333937 heartbeat IPC: 1.77009 cumulative IPC: 1.71384 (Simulation time: 0 hr 5 min 38 sec) 
Heartbeat CPU 0 instructions: 5000002 cycles: 2892947 heartbeat IPC: 1.78888 cumulative IPC: 1.72834 (Simulation time: 0 hr 6 min 57 sec) 
Heartbeat CPU 0 instructions: 6000000 cycles: 3471385 heartbeat IPC: 1.72879 cumulative IPC: 1.72842 (Simulation time: 0 hr 8 min 13 sec) 
Heartbeat CPU 0 instructions: 7000000 cycles: 4035776 heartbeat IPC: 1.77182 cumulative IPC: 1.73449 (Simulation time: 0 hr 9 min 34 sec) 
Heartbeat CPU 0 instructions: 8000000 cycles: 4697510 heartbeat IPC: 1.51118 cumulative IPC: 1.70303 (Simulation time: 0 hr 10 min 47 sec) 
Heartbeat CPU 0 instructions: 9000000 cycles: 5359315 heartbeat IPC: 1.51102 cumulative IPC: 1.67932 (Simulation time: 0 hr 11 min 54 sec) 
Heartbeat CPU 0 instructions: 10000001 cycles: 6020884 heartbeat IPC: 1.51156 cumulative IPC: 1.66089 (Simulation time: 0 hr 13 min 0 sec) 

Warmup complete CPU 0 instructions: 10000001 cycles: 6020884 (Simulation time: 0 hr 13 min 0 sec) 

Heartbeat CPU 0 instructions: 11000001 cycles: 7065700 heartbeat IPC: 0.957106 cumulative IPC: 0.957106 (Simulation time: 0 hr 14 min 9 sec) 
Heartbeat CPU 0 instructions: 12000000 cycles: 8110243 heartbeat IPC: 0.957355 cumulative IPC: 0.957231 (Simulation time: 0 hr 15 min 21 sec) 
Heartbeat CPU 0 instructions: 13000000 cycles: 9180135 heartbeat IPC: 0.934674 cumulative IPC: 0.949592 (Simulation time: 0 hr 16 min 37 sec) 
Heartbeat CPU 0 instructions: 14000001 cycles: 10224386 heartbeat IPC: 0.957625 cumulative IPC: 0.951587 (Simulation time: 0 hr 17 min 47 sec) 
Heartbeat CPU 0 instructions: 15000000 cycles: 11268594 heartbeat IPC: 0.957663 cumulative IPC: 0.952796 (Simulation time: 0 hr 18 min 52 sec) 
Heartbeat CPU 0 instructions: 16000000 cycles: 12312761 heartbeat IPC: 0.957701 cumulative IPC: 0.95361 (Simulation time: 0 hr 20 min 2 sec) 
Heartbeat CPU 0 instructions: 17000000 cycles: 13358298 heartbeat IPC: 0.956446 cumulative IPC: 0.954014 (Simulation time: 0 hr 21 min 11 sec) 
Heartbeat CPU 0 instructions: 18000001 cycles: 14399642 heartbeat IPC: 0.960298 cumulative IPC: 0.954795 (Simulation time: 0 hr 22 min 17 sec) 
Heartbeat CPU 0 instructions: 19000002 cycles: 15434267 heartbeat IPC: 0.966535 cumulative IPC: 0.956086 (Simulation time: 0 hr 23 min 24 sec) 
Heartbeat CPU 0 instructions: 20000000 cycles: 18693809 heartbeat IPC: 0.306791 cumulative IPC: 0.789084 (Simulation time: 0 hr 24 min 57 sec) 
Heartbeat CPU 0 instructions: 21000000 cycles: 21121676 heartbeat IPC: 0.411884 cumulative IPC: 0.728439 (Simulation time: 0 hr 26 min 16 sec) 
Heartbeat CPU 0 instructions: 22000002 cycles: 22956722 heartbeat IPC: 0.544947 cumulative IPC: 0.708557 (Simulation time: 0 hr 27 min 30 sec) 
Heartbeat CPU 0 instructions: 23000000 cycles: 26169318 heartbeat IPC: 0.311274 cumulative IPC: 0.645211 (Simulation time: 0 hr 28 min 59 sec) 
Heartbeat CPU 0 instructions: 24000000 cycles: 29376123 heartbeat IPC: 0.311837 cumulative IPC: 0.599437 (Simulation time: 0 hr 30 min 27 sec) 
Heartbeat CPU 0 instructions: 25000001 cycles: 31938833 heartbeat IPC: 0.390212 cumulative IPC: 0.578749 (Simulation time: 0 hr 31 min 52 sec) 
Heartbeat CPU 0 instructions: 26000001 cycles: 33605970 heartbeat IPC: 0.599831 cumulative IPC: 0.580024 (Simulation time: 0 hr 33 min 4 sec) 
Heartbeat CPU 0 instructions: 27000000 cycles: 36806519 heartbeat IPC: 0.312446 cumulative IPC: 0.552206 (Simulation time: 0 hr 34 min 30 sec) 
Heartbeat CPU 0 instructions: 28000000 cycles: 40003376 heartbeat IPC: 0.312807 cumulative IPC: 0.529684 (Simulation time: 0 hr 35 min 56 sec) 
Heartbeat CPU 0 instructions: 29000000 cycles: 42731428 heartbeat IPC: 0.366562 cumulative IPC: 0.517562 (Simulation time: 0 hr 37 min 17 sec) 
Heartbeat CPU 0 instructions: 30000000 cycles: 44230654 heartbeat IPC: 0.667011 cumulative IPC: 0.523426 (Simulation time: 0 hr 38 min 27 sec) 
Heartbeat CPU 0 instructions: 31000000 cycles: 47421691 heartbeat IPC: 0.313378 cumulative IPC: 0.507236 (Simulation time: 0 hr 39 min 57 sec) 
Heartbeat CPU 0 instructions: 32000000 cycles: 50614581 heartbeat IPC: 0.313196 cumulative IPC: 0.493343 (Simulation time: 0 hr 41 min 23 sec) 
Heartbeat CPU 0 instructions: 33000001 cycles: 53521789 heartbeat IPC: 0.343973 cumulative IPC: 0.484201 (Simulation time: 0 hr 42 min 45 sec) 
Heartbeat CPU 0 instructions: 34000000 cycles: 54835285 heartbeat IPC: 0.761326 cumulative IPC: 0.491658 (Simulation time: 0 hr 43 min 58 sec) 
Heartbeat CPU 0 instructions: 35000003 cycles: 58018867 heartbeat IPC: 0.314113 cumulative IPC: 0.480788 (Simulation time: 0 hr 45 min 26 sec) 
Heartbeat CPU 0 instructions: 36000000 cycles: 61247132 heartbeat IPC: 0.309763 cumulative IPC: 0.470791 (Simulation time: 0 hr 46 min 55 sec) 
Heartbeat CPU 0 instructions: 37000001 cycles: 64052914 heartbeat IPC: 0.356407 cumulative IPC: 0.46526 (Simulation time: 0 hr 48 min 14 sec) 
Heartbeat CPU 0 instructions: 38000000 cycles: 65475674 heartbeat IPC: 0.702859 cumulative IPC: 0.470946 (Simulation time: 0 hr 49 min 26 sec) 
Heartbeat CPU 0 instructions: 39000000 cycles: 68666398 heartbeat IPC: 0.313408 cumulative IPC: 0.462922 (Simulation time: 0 hr 50 min 59 sec) 
Heartbeat CPU 0 instructions: 40000000 cycles: 71853967 heartbeat IPC: 0.313719 cumulative IPC: 0.455698 (Simulation time: 0 hr 52 min 26 sec) 
Heartbeat CPU 0 instructions: 41000002 cycles: 74561117 heartbeat IPC: 0.369393 cumulative IPC: 0.452289 (Simulation time: 0 hr 53 min 49 sec) 
Heartbeat CPU 0 instructions: 42000000 cycles: 76077666 heartbeat IPC: 0.659391 cumulative IPC: 0.456772 (Simulation time: 0 hr 55 min 2 sec) 
Heartbeat CPU 0 instructions: 43000003 cycles: 81328514 heartbeat IPC: 0.190446 cumulative IPC: 0.438203 (Simulation time: 0 hr 56 min 51 sec) 
Heartbeat CPU 0 instructions: 44000000 cycles: 82375063 heartbeat IPC: 0.955519 cumulative IPC: 0.445293 (Simulation time: 0 hr 57 min 56 sec) 
Heartbeat CPU 0 instructions: 45000003 cycles: 83417843 heartbeat IPC: 0.958978 cumulative IPC: 0.452214 (Simulation time: 0 hr 59 min 4 sec) 
Heartbeat CPU 0 instructions: 46000001 cycles: 84460910 heartbeat IPC: 0.958709 cumulative IPC: 0.458949 (Simulation time: 1 hr 0 min 14 sec) 
Heartbeat CPU 0 instructions: 47000001 cycles: 85505445 heartbeat IPC: 0.957364 cumulative IPC: 0.465499 (Simulation time: 1 hr 1 min 31 sec) 
Heartbeat CPU 0 instructions: 48000000 cycles: 86548623 heartbeat IPC: 0.958608 cumulative IPC: 0.471887 (Simulation time: 1 hr 2 min 40 sec) 
Heartbeat CPU 0 instructions: 49000000 cycles: 87590429 heartbeat IPC: 0.959872 cumulative IPC: 0.47812 (Simulation time: 1 hr 3 min 48 sec) 
Heartbeat CPU 0 instructions: 50000000 cycles: 88633217 heartbeat IPC: 0.958968 cumulative IPC: 0.484189 (Simulation time: 1 hr 4 min 55 sec) 
Heartbeat CPU 0 instructions: 51000002 cycles: 89676105 heartbeat IPC: 0.958878 cumulative IPC: 0.490107 (Simulation time: 1 hr 6 min 5 sec) 
Heartbeat CPU 0 instructions: 52000000 cycles: 90720344 heartbeat IPC: 0.957633 cumulative IPC: 0.495871 (Simulation time: 1 hr 7 min 10 sec) 
Heartbeat CPU 0 instructions: 53000001 cycles: 91762816 heartbeat IPC: 0.959259 cumulative IPC: 0.501505 (Simulation time: 1 hr 8 min 15 sec) 
Heartbeat CPU 0 instructions: 54000002 cycles: 92831031 heartbeat IPC: 0.936142 cumulative IPC: 0.506853 (Simulation time: 1 hr 9 min 28 sec) 
Heartbeat CPU 0 instructions: 55000003 cycles: 93871306 heartbeat IPC: 0.961285 cumulative IPC: 0.512234 (Simulation time: 1 hr 10 min 40 sec) 
Heartbeat CPU 0 instructions: 56000000 cycles: 96068200 heartbeat IPC: 0.455187 cumulative IPC: 0.510843 (Simulation time: 1 hr 11 min 56 sec) 
Heartbeat CPU 0 instructions: 57000003 cycles: 98083975 heartbeat IPC: 0.496089 cumulative IPC: 0.51052 (Simulation time: 1 hr 13 min 18 sec) 
Heartbeat CPU 0 instructions: 58000000 cycles: 101286395 heartbeat IPC: 0.312263 cumulative IPC: 0.503855 (Simulation time: 1 hr 14 min 48 sec) 
Heartbeat CPU 0 instructions: 59000003 cycles: 104490010 heartbeat IPC: 0.312148 cumulative IPC: 0.497618 (Simulation time: 1 hr 16 min 16 sec) 
Heartbeat CPU 0 instructions: 60000000 cycles: 106840098 heartbeat IPC: 0.425515 cumulative IPC: 0.495937 (Simulation time: 1 hr 17 min 34 sec) 
Heartbeat CPU 0 instructions: 61000001 cycles: 108709817 heartbeat IPC: 0.53484 cumulative IPC: 0.496646 (Simulation time: 1 hr 18 min 52 sec) 
Heartbeat CPU 0 instructions: 62000001 cycles: 111892658 heartbeat IPC: 0.314185 cumulative IPC: 0.49116 (Simulation time: 1 hr 20 min 20 sec) 
Heartbeat CPU 0 instructions: 63000000 cycles: 115094064 heartbeat IPC: 0.312362 cumulative IPC: 0.485912 (Simulation time: 1 hr 21 min 48 sec) 
Heartbeat CPU 0 instructions: 64000000 cycles: 117603945 heartbeat IPC: 0.398425 cumulative IPC: 0.483944 (Simulation time: 1 hr 23 min 5 sec) 
Heartbeat CPU 0 instructions: 65000000 cycles: 119312572 heartbeat IPC: 0.585265 cumulative IPC: 0.485473 (Simulation time: 1 hr 24 min 23 sec) 
Heartbeat CPU 0 instructions: 66000000 cycles: 122499332 heartbeat IPC: 0.313798 cumulative IPC: 0.480776 (Simulation time: 1 hr 25 min 52 sec) 
Heartbeat CPU 0 instructions: 67000001 cycles: 125697208 heartbeat IPC: 0.312708 cumulative IPC: 0.476285 (Simulation time: 1 hr 27 min 18 sec) 
Heartbeat CPU 0 instructions: 68000000 cycles: 128385614 heartbeat IPC: 0.371967 cumulative IPC: 0.473993 (Simulation time: 1 hr 28 min 37 sec) 
Heartbeat CPU 0 instructions: 69000001 cycles: 129920992 heartbeat IPC: 0.651306 cumulative IPC: 0.47619 (Simulation time: 1 hr 29 min 48 sec) 
Heartbeat CPU 0 instructions: 70000001 cycles: 133095721 heartbeat IPC: 0.314988 cumulative IPC: 0.472163 (Simulation time: 1 hr 31 min 17 sec) 
Heartbeat CPU 0 instructions: 71000001 cycles: 136294420 heartbeat IPC: 0.312627 cumulative IPC: 0.468246 (Simulation time: 1 hr 32 min 45 sec) 
Heartbeat CPU 0 instructions: 72000000 cycles: 138995070 heartbeat IPC: 0.370281 cumulative IPC: 0.466256 (Simulation time: 1 hr 34 min 7 sec) 
Heartbeat CPU 0 instructions: 73000000 cycles: 140537919 heartbeat IPC: 0.648152 cumulative IPC: 0.468342 (Simulation time: 1 hr 35 min 23 sec) 
Heartbeat CPU 0 instructions: 74000003 cycles: 143740262 heartbeat IPC: 0.312272 cumulative IPC: 0.464713 (Simulation time: 1 hr 36 min 48 sec) 
Heartbeat CPU 0 instructions: 75000001 cycles: 146944209 heartbeat IPC: 0.312114 cumulative IPC: 0.461244 (Simulation time: 1 hr 38 min 14 sec) 
Heartbeat CPU 0 instructions: 76000000 cycles: 149538395 heartbeat IPC: 0.385477 cumulative IPC: 0.459874 (Simulation time: 1 hr 39 min 36 sec) 
Heartbeat CPU 0 instructions: 77000001 cycles: 151177794 heartbeat IPC: 0.60998 cumulative IPC: 0.461569 (Simulation time: 1 hr 40 min 54 sec) 
Heartbeat CPU 0 instructions: 78000000 cycles: 154362978 heartbeat IPC: 0.313953 cumulative IPC: 0.4584 (Simulation time: 1 hr 42 min 22 sec) 
Heartbeat CPU 0 instructions: 79000000 cycles: 157722447 heartbeat IPC: 0.297666 cumulative IPC: 0.45484 (Simulation time: 1 hr 43 min 55 sec) 
Heartbeat CPU 0 instructions: 80000000 cycles: 159532893 heartbeat IPC: 0.55235 cumulative IPC: 0.45599 (Simulation time: 1 hr 45 min 7 sec) 
Heartbeat CPU 0 instructions: 81000001 cycles: 161936074 heartbeat IPC: 0.416116 cumulative IPC: 0.455376 (Simulation time: 1 hr 46 min 28 sec) 
Heartbeat CPU 0 instructions: 82000000 cycles: 165133039 heartbeat IPC: 0.312796 cumulative IPC: 0.452511 (Simulation time: 1 hr 47 min 55 sec) 
Heartbeat CPU 0 instructions: 83000000 cycles: 168336735 heartbeat IPC: 0.312139 cumulative IPC: 0.44974 (Simulation time: 1 hr 49 min 23 sec) 
Heartbeat CPU 0 instructions: 84000000 cycles: 170119173 heartbeat IPC: 0.561029 cumulative IPC: 0.450949 (Simulation time: 1 hr 50 min 41 sec) 
Heartbeat CPU 0 instructions: 85000003 cycles: 172551826 heartbeat IPC: 0.411075 cumulative IPC: 0.450367 (Simulation time: 1 hr 51 min 58 sec) 
Heartbeat CPU 0 instructions: 86000001 cycles: 175752569 heartbeat IPC: 0.312427 cumulative IPC: 0.447766 (Simulation time: 1 hr 53 min 26 sec) 
Heartbeat CPU 0 instructions: 87000000 cycles: 178945652 heartbeat IPC: 0.313177 cumulative IPC: 0.44528 (Simulation time: 1 hr 54 min 54 sec) 
Heartbeat CPU 0 instructions: 88000000 cycles: 180587875 heartbeat IPC: 0.608931 cumulative IPC: 0.44682 (Simulation time: 1 hr 56 min 7 sec) 
Heartbeat CPU 0 instructions: 89000000 cycles: 185222584 heartbeat IPC: 0.215763 cumulative IPC: 0.440844 (Simulation time: 1 hr 57 min 50 sec) 
Heartbeat CPU 0 instructions: 90000002 cycles: 186266028 heartbeat IPC: 0.958367 cumulative IPC: 0.44384 (Simulation time: 1 hr 58 min 59 sec) 
Heartbeat CPU 0 instructions: 91000001 cycles: 187310236 heartbeat IPC: 0.957663 cumulative IPC: 0.4468 (Simulation time: 2 hr 0 min 5 sec) 
Heartbeat CPU 0 instructions: 92000000 cycles: 188353807 heartbeat IPC: 0.958247 cumulative IPC: 0.449727 (Simulation time: 2 hr 1 min 13 sec) 
Heartbeat CPU 0 instructions: 93000002 cycles: 189398072 heartbeat IPC: 0.957613 cumulative IPC: 0.452619 (Simulation time: 2 hr 2 min 19 sec) 
Heartbeat CPU 0 instructions: 94000001 cycles: 190441900 heartbeat IPC: 0.958011 cumulative IPC: 0.45548 (Simulation time: 2 hr 3 min 26 sec) 
Heartbeat CPU 0 instructions: 95000000 cycles: 191486164 heartbeat IPC: 0.957611 cumulative IPC: 0.458307 (Simulation time: 2 hr 4 min 32 sec) 
Heartbeat CPU 0 instructions: 96000000 cycles: 192530959 heartbeat IPC: 0.957126 cumulative IPC: 0.461101 (Simulation time: 2 hr 5 min 40 sec) 
Heartbeat CPU 0 instructions: 97000002 cycles: 193601811 heartbeat IPC: 0.933838 cumulative IPC: 0.4638 (Simulation time: 2 hr 6 min 48 sec) 
Heartbeat CPU 0 instructions: 98000000 cycles: 194647549 heartbeat IPC: 0.956261 cumulative IPC: 0.46653 (Simulation time: 2 hr 7 min 55 sec) 
Heartbeat CPU 0 instructions: 99000003 cycles: 195685866 heartbeat IPC: 0.9631 cumulative IPC: 0.469248 (Simulation time: 2 hr 9 min 3 sec) 
Heartbeat CPU 0 instructions: 100000000 cycles: 196722320 heartbeat IPC: 0.964825 cumulative IPC: 0.471942 (Simulation time: 2 hr 10 min 10 sec) 
Heartbeat CPU 0 instructions: 101000001 cycles: 197763463 heartbeat IPC: 0.960484 cumulative IPC: 0.474595 (Simulation time: 2 hr 11 min 17 sec) 
Heartbeat CPU 0 instructions: 102000001 cycles: 200910501 heartbeat IPC: 0.317759 cumulative IPC: 0.472062 (Simulation time: 2 hr 12 min 43 sec) 
Heartbeat CPU 0 instructions: 103000001 cycles: 202293062 heartbeat IPC: 0.723295 cumulative IPC: 0.473832 (Simulation time: 2 hr 13 min 53 sec) 
Heartbeat CPU 0 instructions: 104000000 cycles: 205185148 heartbeat IPC: 0.345771 cumulative IPC: 0.471972 (Simulation time: 2 hr 15 min 12 sec) 
Heartbeat CPU 0 instructions: 105000000 cycles: 208381903 heartbeat IPC: 0.312817 cumulative IPC: 0.469458 (Simulation time: 2 hr 16 min 32 sec) 
Heartbeat CPU 0 instructions: 106000000 cycles: 211523812 heartbeat IPC: 0.318278 cumulative IPC: 0.467147 (Simulation time: 2 hr 17 min 52 sec) 
Heartbeat CPU 0 instructions: 107000001 cycles: 213058119 heartbeat IPC: 0.651761 cumulative IPC: 0.468515 (Simulation time: 2 hr 19 min 2 sec) 
Heartbeat CPU 0 instructions: 108000000 cycles: 215796751 heartbeat IPC: 0.365145 cumulative IPC: 0.467165 (Simulation time: 2 hr 20 min 19 sec) 
Heartbeat CPU 0 instructions: 109000000 cycles: 218988655 heartbeat IPC: 0.313293 cumulative IPC: 0.464859 (Simulation time: 2 hr 21 min 42 sec) 
Heartbeat CPU 0 instructions: 110000000 cycles: 222173150 heartbeat IPC: 0.314022 cumulative IPC: 0.462637 (Simulation time: 2 hr 23 min 4 sec) 
Finished CPU 0 instructions: 100000003 cycles: 216152271 cummulative IPC: 0.462637 (Simulation time: 2 hr 23 min 4 sec) 

ChampSim completed all CPUs

Region of Interest Statistics

CPU 0 cummulative IPC: 0.462637 instructions: 100000003 cycles: 216152271
LLC TOTAL     ACCESS:    3283364  HIT:    1539909  MISS:    1743455
LLC LOAD      ACCESS:    1564003  HIT:    1349502  MISS:     214501
LLC RFO       ACCESS:       5220  HIT:       2639  MISS:       2581
LLC PREFETCH  ACCESS:    1697293  HIT:     179295  MISS:    1517998
LLC WRITEBACK ACCESS:      16848  HIT:       8473  MISS:       8375
Insertion Distribution: 
	LOAD 7498 0 0 0 0 0 0 0 0 0 0 0 0 0 0 0 0 0 0 0 0 0 0 0 0 0 0 0 0 0 38583 256819 
	RFO 0 0 0 0 0 0 0 0 0 0 0 0 0 0 0 0 0 0 0 0 0 0 0 0 0 0 0 0 0 0 840 2064 
	PREF 0 69 0 0 0 0 0 0 0 0 0 0 0 0 0 0 0 0 0 0 0 0 0 0 0 0 0 0 0 0 40139 1628994 
	WRITEBACK 0 0 0 0 0 0 0 0 0 0 0 0 0 0 0 0 0 0 0 0 0 0 0 0 0 0 0 0 0 0 0 8534 
Total Prefetch Downgrades: 1279
