
*** ChampSim Multicore Out-of-Order Simulator ***

Warmup Instructions: 10000000
Simulation Instructions: 100000000
Configuration: 2
Number of CPUs: 1
LLC sets: 2048
LLC ways: 16
Off-chip DRAM Channels: 1 Width: 64-bit Data Rate: 1600 MT/s

CPU 0 runs /datasets/cs240c-wi22-a00-public/data/Assignment2-gz/omnetpp_4B.trace.gz
CPU 0 L1D next line prefetcher
CPU 0 L2C IP-based stride prefetcher
Initialize SRRIP state
Heartbeat CPU 0 instructions: 1000001 cycles: 566984 heartbeat IPC: 1.76372 cumulative IPC: 1.76372 (Simulation time: 0 hr 1 min 22 sec) 
Heartbeat CPU 0 instructions: 2000001 cycles: 1135714 heartbeat IPC: 1.7583 cumulative IPC: 1.76101 (Simulation time: 0 hr 2 min 40 sec) 
Heartbeat CPU 0 instructions: 3000001 cycles: 1722945 heartbeat IPC: 1.70291 cumulative IPC: 1.74121 (Simulation time: 0 hr 4 min 1 sec) 
Heartbeat CPU 0 instructions: 4000000 cycles: 2292438 heartbeat IPC: 1.75595 cumulative IPC: 1.74487 (Simulation time: 0 hr 5 min 20 sec) 
Heartbeat CPU 0 instructions: 5000000 cycles: 2866654 heartbeat IPC: 1.7415 cumulative IPC: 1.74419 (Simulation time: 0 hr 6 min 38 sec) 
Heartbeat CPU 0 instructions: 6000000 cycles: 3442835 heartbeat IPC: 1.73557 cumulative IPC: 1.74275 (Simulation time: 0 hr 7 min 54 sec) 
Heartbeat CPU 0 instructions: 7000000 cycles: 4012156 heartbeat IPC: 1.75648 cumulative IPC: 1.7447 (Simulation time: 0 hr 9 min 12 sec) 
Heartbeat CPU 0 instructions: 8000000 cycles: 4565641 heartbeat IPC: 1.80673 cumulative IPC: 1.75222 (Simulation time: 0 hr 10 min 32 sec) 
Heartbeat CPU 0 instructions: 9000001 cycles: 5147745 heartbeat IPC: 1.71791 cumulative IPC: 1.74834 (Simulation time: 0 hr 11 min 51 sec) 
Heartbeat CPU 0 instructions: 10000000 cycles: 5701700 heartbeat IPC: 1.8052 cumulative IPC: 1.75386 (Simulation time: 0 hr 13 min 6 sec) 

Warmup complete CPU 0 instructions: 10000003 cycles: 5701701 (Simulation time: 0 hr 13 min 6 sec) 

Heartbeat CPU 0 instructions: 11000000 cycles: 8867318 heartbeat IPC: 0.315894 cumulative IPC: 0.315893 (Simulation time: 0 hr 14 min 41 sec) 
Heartbeat CPU 0 instructions: 12000000 cycles: 10021802 heartbeat IPC: 0.866188 cumulative IPC: 0.462951 (Simulation time: 0 hr 15 min 53 sec) 
Heartbeat CPU 0 instructions: 13000003 cycles: 11166752 heartbeat IPC: 0.873403 cumulative IPC: 0.548943 (Simulation time: 0 hr 17 min 4 sec) 
Heartbeat CPU 0 instructions: 14000000 cycles: 12286972 heartbeat IPC: 0.892679 cumulative IPC: 0.607416 (Simulation time: 0 hr 18 min 13 sec) 
Heartbeat CPU 0 instructions: 15000000 cycles: 13426173 heartbeat IPC: 0.877808 cumulative IPC: 0.647293 (Simulation time: 0 hr 19 min 18 sec) 
Heartbeat CPU 0 instructions: 16000000 cycles: 16263295 heartbeat IPC: 0.35247 cumulative IPC: 0.568096 (Simulation time: 0 hr 20 min 41 sec) 
Heartbeat CPU 0 instructions: 17000003 cycles: 19109564 heartbeat IPC: 0.351338 cumulative IPC: 0.522082 (Simulation time: 0 hr 22 min 3 sec) 
Heartbeat CPU 0 instructions: 18000002 cycles: 21904019 heartbeat IPC: 0.357851 cumulative IPC: 0.493756 (Simulation time: 0 hr 23 min 22 sec) 
Heartbeat CPU 0 instructions: 19000002 cycles: 24720032 heartbeat IPC: 0.355112 cumulative IPC: 0.473228 (Simulation time: 0 hr 24 min 49 sec) 
Heartbeat CPU 0 instructions: 20000000 cycles: 28049871 heartbeat IPC: 0.300314 cumulative IPC: 0.447464 (Simulation time: 0 hr 26 min 15 sec) 
Heartbeat CPU 0 instructions: 21000000 cycles: 31357354 heartbeat IPC: 0.302345 cumulative IPC: 0.428755 (Simulation time: 0 hr 27 min 37 sec) 
Heartbeat CPU 0 instructions: 22000001 cycles: 34543819 heartbeat IPC: 0.313828 cumulative IPC: 0.416058 (Simulation time: 0 hr 29 min 4 sec) 
Heartbeat CPU 0 instructions: 23000000 cycles: 37378837 heartbeat IPC: 0.352731 cumulative IPC: 0.410391 (Simulation time: 0 hr 30 min 28 sec) 
Heartbeat CPU 0 instructions: 24000000 cycles: 40182645 heartbeat IPC: 0.356658 cumulative IPC: 0.406021 (Simulation time: 0 hr 31 min 51 sec) 
Heartbeat CPU 0 instructions: 25000000 cycles: 42968705 heartbeat IPC: 0.35893 cumulative IPC: 0.402501 (Simulation time: 0 hr 33 min 15 sec) 
Heartbeat CPU 0 instructions: 26000002 cycles: 45734430 heartbeat IPC: 0.36157 cumulative IPC: 0.399673 (Simulation time: 0 hr 34 min 37 sec) 
Heartbeat CPU 0 instructions: 27000001 cycles: 48545881 heartbeat IPC: 0.355688 cumulative IPC: 0.396787 (Simulation time: 0 hr 35 min 57 sec) 
Heartbeat CPU 0 instructions: 28000000 cycles: 51303857 heartbeat IPC: 0.362584 cumulative IPC: 0.394718 (Simulation time: 0 hr 37 min 17 sec) 
Heartbeat CPU 0 instructions: 29000001 cycles: 54147936 heartbeat IPC: 0.351608 cumulative IPC: 0.392187 (Simulation time: 0 hr 38 min 38 sec) 
Heartbeat CPU 0 instructions: 30000000 cycles: 56941016 heartbeat IPC: 0.358027 cumulative IPC: 0.390325 (Simulation time: 0 hr 40 min 7 sec) 
Heartbeat CPU 0 instructions: 31000002 cycles: 59714722 heartbeat IPC: 0.360529 cumulative IPC: 0.388795 (Simulation time: 0 hr 41 min 30 sec) 
Heartbeat CPU 0 instructions: 32000000 cycles: 62527182 heartbeat IPC: 0.35556 cumulative IPC: 0.38715 (Simulation time: 0 hr 42 min 55 sec) 
Heartbeat CPU 0 instructions: 33000000 cycles: 65680921 heartbeat IPC: 0.317084 cumulative IPC: 0.383466 (Simulation time: 0 hr 44 min 22 sec) 
Heartbeat CPU 0 instructions: 34000001 cycles: 68985373 heartbeat IPC: 0.302622 cumulative IPC: 0.379245 (Simulation time: 0 hr 45 min 49 sec) 
Heartbeat CPU 0 instructions: 35000001 cycles: 72018626 heartbeat IPC: 0.329679 cumulative IPC: 0.376978 (Simulation time: 0 hr 47 min 16 sec) 
Heartbeat CPU 0 instructions: 36000000 cycles: 75318293 heartbeat IPC: 0.303061 cumulative IPC: 0.373474 (Simulation time: 0 hr 48 min 42 sec) 
Heartbeat CPU 0 instructions: 37000001 cycles: 78114552 heartbeat IPC: 0.357621 cumulative IPC: 0.372862 (Simulation time: 0 hr 50 min 5 sec) 
Heartbeat CPU 0 instructions: 38000001 cycles: 81299976 heartbeat IPC: 0.31393 cumulative IPC: 0.370379 (Simulation time: 0 hr 51 min 36 sec) 
Heartbeat CPU 0 instructions: 39000001 cycles: 83820553 heartbeat IPC: 0.396735 cumulative IPC: 0.371229 (Simulation time: 0 hr 53 min 0 sec) 
Heartbeat CPU 0 instructions: 40000000 cycles: 84942766 heartbeat IPC: 0.891096 cumulative IPC: 0.378592 (Simulation time: 0 hr 54 min 4 sec) 
Heartbeat CPU 0 instructions: 41000001 cycles: 86069040 heartbeat IPC: 0.887884 cumulative IPC: 0.385729 (Simulation time: 0 hr 55 min 11 sec) 
Heartbeat CPU 0 instructions: 42000001 cycles: 87203361 heartbeat IPC: 0.881585 cumulative IPC: 0.39263 (Simulation time: 0 hr 56 min 17 sec) 
Heartbeat CPU 0 instructions: 43000002 cycles: 88422990 heartbeat IPC: 0.819922 cumulative IPC: 0.39893 (Simulation time: 0 hr 57 min 28 sec) 
Heartbeat CPU 0 instructions: 44000000 cycles: 91326989 heartbeat IPC: 0.344352 cumulative IPC: 0.397079 (Simulation time: 0 hr 58 min 55 sec) 
Heartbeat CPU 0 instructions: 45000000 cycles: 94194751 heartbeat IPC: 0.348704 cumulative IPC: 0.395511 (Simulation time: 1 hr 0 min 19 sec) 
Heartbeat CPU 0 instructions: 46000000 cycles: 97538270 heartbeat IPC: 0.299086 cumulative IPC: 0.392001 (Simulation time: 1 hr 1 min 51 sec) 
Heartbeat CPU 0 instructions: 47000000 cycles: 100862671 heartbeat IPC: 0.300806 cumulative IPC: 0.388815 (Simulation time: 1 hr 3 min 15 sec) 
Heartbeat CPU 0 instructions: 48000000 cycles: 104010912 heartbeat IPC: 0.317638 cumulative IPC: 0.386535 (Simulation time: 1 hr 4 min 43 sec) 
Heartbeat CPU 0 instructions: 49000000 cycles: 106922169 heartbeat IPC: 0.343494 cumulative IPC: 0.385298 (Simulation time: 1 hr 6 min 14 sec) 
Heartbeat CPU 0 instructions: 50000001 cycles: 109727796 heartbeat IPC: 0.356427 cumulative IPC: 0.384519 (Simulation time: 1 hr 7 min 35 sec) 
Heartbeat CPU 0 instructions: 51000003 cycles: 112534949 heartbeat IPC: 0.356234 cumulative IPC: 0.383776 (Simulation time: 1 hr 9 min 2 sec) 
Heartbeat CPU 0 instructions: 52000000 cycles: 115317024 heartbeat IPC: 0.359443 cumulative IPC: 0.383158 (Simulation time: 1 hr 10 min 30 sec) 
Heartbeat CPU 0 instructions: 53000003 cycles: 118113901 heartbeat IPC: 0.357543 cumulative IPC: 0.382521 (Simulation time: 1 hr 11 min 51 sec) 
Heartbeat CPU 0 instructions: 54000001 cycles: 120881271 heartbeat IPC: 0.361353 cumulative IPC: 0.382012 (Simulation time: 1 hr 13 min 16 sec) 
Heartbeat CPU 0 instructions: 55000001 cycles: 123811893 heartbeat IPC: 0.341224 cumulative IPC: 0.381 (Simulation time: 1 hr 14 min 43 sec) 
Heartbeat CPU 0 instructions: 56000000 cycles: 126615056 heartbeat IPC: 0.35674 cumulative IPC: 0.380438 (Simulation time: 1 hr 16 min 7 sec) 
Heartbeat CPU 0 instructions: 57000003 cycles: 129388754 heartbeat IPC: 0.360531 cumulative IPC: 0.379991 (Simulation time: 1 hr 17 min 30 sec) 
Heartbeat CPU 0 instructions: 58000001 cycles: 132366522 heartbeat IPC: 0.335821 cumulative IPC: 0.378953 (Simulation time: 1 hr 18 min 55 sec) 
Heartbeat CPU 0 instructions: 59000001 cycles: 135655432 heartbeat IPC: 0.304052 cumulative IPC: 0.377057 (Simulation time: 1 hr 20 min 21 sec) 
Heartbeat CPU 0 instructions: 60000000 cycles: 138636658 heartbeat IPC: 0.335432 cumulative IPC: 0.376124 (Simulation time: 1 hr 21 min 49 sec) 
Heartbeat CPU 0 instructions: 61000001 cycles: 141692889 heartbeat IPC: 0.327201 cumulative IPC: 0.375024 (Simulation time: 1 hr 23 min 17 sec) 
Heartbeat CPU 0 instructions: 62000000 cycles: 145040070 heartbeat IPC: 0.298759 cumulative IPC: 0.373192 (Simulation time: 1 hr 24 min 48 sec) 
Heartbeat CPU 0 instructions: 63000001 cycles: 147868614 heartbeat IPC: 0.353539 cumulative IPC: 0.372801 (Simulation time: 1 hr 26 min 15 sec) 
Heartbeat CPU 0 instructions: 64000000 cycles: 150693329 heartbeat IPC: 0.354018 cumulative IPC: 0.372435 (Simulation time: 1 hr 27 min 38 sec) 
Heartbeat CPU 0 instructions: 65000001 cycles: 153503136 heartbeat IPC: 0.355897 cumulative IPC: 0.372121 (Simulation time: 1 hr 29 min 1 sec) 
Heartbeat CPU 0 instructions: 66000002 cycles: 157649230 heartbeat IPC: 0.241191 cumulative IPC: 0.368548 (Simulation time: 1 hr 30 min 36 sec) 
Heartbeat CPU 0 instructions: 67000001 cycles: 159318652 heartbeat IPC: 0.599009 cumulative IPC: 0.371053 (Simulation time: 1 hr 31 min 54 sec) 
Heartbeat CPU 0 instructions: 68000000 cycles: 160443487 heartbeat IPC: 0.889018 cumulative IPC: 0.374818 (Simulation time: 1 hr 33 min 3 sec) 
Heartbeat CPU 0 instructions: 69000003 cycles: 161585523 heartbeat IPC: 0.875632 cumulative IPC: 0.378487 (Simulation time: 1 hr 34 min 12 sec) 
Heartbeat CPU 0 instructions: 70000000 cycles: 162705769 heartbeat IPC: 0.892658 cumulative IPC: 0.382156 (Simulation time: 1 hr 35 min 21 sec) 
Heartbeat CPU 0 instructions: 71000001 cycles: 163881230 heartbeat IPC: 0.850731 cumulative IPC: 0.385638 (Simulation time: 1 hr 36 min 26 sec) 
Heartbeat CPU 0 instructions: 72000000 cycles: 167213463 heartbeat IPC: 0.300099 cumulative IPC: 0.383873 (Simulation time: 1 hr 37 min 55 sec) 
Heartbeat CPU 0 instructions: 73000000 cycles: 170612685 heartbeat IPC: 0.294185 cumulative IPC: 0.382024 (Simulation time: 1 hr 39 min 30 sec) 
Heartbeat CPU 0 instructions: 74000001 cycles: 173964509 heartbeat IPC: 0.298345 cumulative IPC: 0.380357 (Simulation time: 1 hr 41 min 0 sec) 
Heartbeat CPU 0 instructions: 75000001 cycles: 176893991 heartbeat IPC: 0.341357 cumulative IPC: 0.37969 (Simulation time: 1 hr 42 min 27 sec) 
Heartbeat CPU 0 instructions: 76000000 cycles: 179695383 heartbeat IPC: 0.356965 cumulative IPC: 0.379324 (Simulation time: 1 hr 43 min 49 sec) 
Heartbeat CPU 0 instructions: 77000000 cycles: 182506859 heartbeat IPC: 0.355685 cumulative IPC: 0.378948 (Simulation time: 1 hr 45 min 15 sec) 
Heartbeat CPU 0 instructions: 78000001 cycles: 185310958 heartbeat IPC: 0.356621 cumulative IPC: 0.3786 (Simulation time: 1 hr 46 min 39 sec) 
Heartbeat CPU 0 instructions: 79000001 cycles: 188106466 heartbeat IPC: 0.357717 cumulative IPC: 0.37828 (Simulation time: 1 hr 48 min 1 sec) 
Heartbeat CPU 0 instructions: 80000000 cycles: 190879950 heartbeat IPC: 0.360557 cumulative IPC: 0.378014 (Simulation time: 1 hr 49 min 22 sec) 
Heartbeat CPU 0 instructions: 81000002 cycles: 193742095 heartbeat IPC: 0.349389 cumulative IPC: 0.377578 (Simulation time: 1 hr 50 min 47 sec) 
Heartbeat CPU 0 instructions: 82000001 cycles: 196551821 heartbeat IPC: 0.355906 cumulative IPC: 0.377259 (Simulation time: 1 hr 52 min 5 sec) 
Heartbeat CPU 0 instructions: 83000002 cycles: 199404666 heartbeat IPC: 0.350528 cumulative IPC: 0.376866 (Simulation time: 1 hr 53 min 30 sec) 
Heartbeat CPU 0 instructions: 84000000 cycles: 202277387 heartbeat IPC: 0.348101 cumulative IPC: 0.376445 (Simulation time: 1 hr 54 min 55 sec) 
Heartbeat CPU 0 instructions: 85000002 cycles: 205598891 heartbeat IPC: 0.301069 cumulative IPC: 0.375193 (Simulation time: 1 hr 56 min 24 sec) 
Heartbeat CPU 0 instructions: 86000002 cycles: 208902394 heartbeat IPC: 0.302709 cumulative IPC: 0.374014 (Simulation time: 1 hr 57 min 52 sec) 
Heartbeat CPU 0 instructions: 87000000 cycles: 211939185 heartbeat IPC: 0.329294 cumulative IPC: 0.373356 (Simulation time: 1 hr 59 min 19 sec) 
Heartbeat CPU 0 instructions: 88000000 cycles: 214943793 heartbeat IPC: 0.332822 cumulative IPC: 0.372774 (Simulation time: 2 hr 0 min 43 sec) 
Heartbeat CPU 0 instructions: 89000002 cycles: 218045906 heartbeat IPC: 0.322362 cumulative IPC: 0.372037 (Simulation time: 2 hr 2 min 10 sec) 
Heartbeat CPU 0 instructions: 90000001 cycles: 220834604 heartbeat IPC: 0.35859 cumulative IPC: 0.371863 (Simulation time: 2 hr 3 min 28 sec) 
Heartbeat CPU 0 instructions: 91000001 cycles: 223651695 heartbeat IPC: 0.354976 cumulative IPC: 0.371645 (Simulation time: 2 hr 4 min 51 sec) 
Heartbeat CPU 0 instructions: 92000000 cycles: 226565601 heartbeat IPC: 0.343182 cumulative IPC: 0.371269 (Simulation time: 2 hr 6 min 16 sec) 
Heartbeat CPU 0 instructions: 93000000 cycles: 229392154 heartbeat IPC: 0.353788 cumulative IPC: 0.371048 (Simulation time: 2 hr 7 min 41 sec) 
Heartbeat CPU 0 instructions: 94000000 cycles: 233923636 heartbeat IPC: 0.220678 cumulative IPC: 0.368063 (Simulation time: 2 hr 9 min 22 sec) 
Heartbeat CPU 0 instructions: 95000000 cycles: 235108444 heartbeat IPC: 0.844019 cumulative IPC: 0.370521 (Simulation time: 2 hr 10 min 29 sec) 
Heartbeat CPU 0 instructions: 96000000 cycles: 236251448 heartbeat IPC: 0.874888 cumulative IPC: 0.373021 (Simulation time: 2 hr 11 min 34 sec) 
Heartbeat CPU 0 instructions: 97000002 cycles: 237370129 heartbeat IPC: 0.893912 cumulative IPC: 0.375537 (Simulation time: 2 hr 12 min 42 sec) 
Heartbeat CPU 0 instructions: 98000001 cycles: 238512068 heartbeat IPC: 0.875703 cumulative IPC: 0.37799 (Simulation time: 2 hr 13 min 48 sec) 
Heartbeat CPU 0 instructions: 99000002 cycles: 240379356 heartbeat IPC: 0.535537 cumulative IPC: 0.379244 (Simulation time: 2 hr 15 min 1 sec) 
Heartbeat CPU 0 instructions: 100000000 cycles: 243761394 heartbeat IPC: 0.295679 cumulative IPC: 0.378056 (Simulation time: 2 hr 16 min 22 sec) 
Heartbeat CPU 0 instructions: 101000002 cycles: 246866952 heartbeat IPC: 0.322004 cumulative IPC: 0.377335 (Simulation time: 2 hr 17 min 44 sec) 
Heartbeat CPU 0 instructions: 102000001 cycles: 249876576 heartbeat IPC: 0.332267 cumulative IPC: 0.376779 (Simulation time: 2 hr 19 min 7 sec) 
Heartbeat CPU 0 instructions: 103000000 cycles: 252674826 heartbeat IPC: 0.357366 cumulative IPC: 0.376559 (Simulation time: 2 hr 20 min 21 sec) 
Heartbeat CPU 0 instructions: 104000000 cycles: 255507049 heartbeat IPC: 0.35308 cumulative IPC: 0.376293 (Simulation time: 2 hr 21 min 39 sec) 
Heartbeat CPU 0 instructions: 105000001 cycles: 258301207 heartbeat IPC: 0.35789 cumulative IPC: 0.376089 (Simulation time: 2 hr 22 min 58 sec) 
Heartbeat CPU 0 instructions: 106000000 cycles: 261221457 heartbeat IPC: 0.342436 cumulative IPC: 0.375705 (Simulation time: 2 hr 24 min 16 sec) 
Heartbeat CPU 0 instructions: 107000002 cycles: 264050313 heartbeat IPC: 0.3535 cumulative IPC: 0.375462 (Simulation time: 2 hr 25 min 26 sec) 
Heartbeat CPU 0 instructions: 108000000 cycles: 266849838 heartbeat IPC: 0.357203 cumulative IPC: 0.375266 (Simulation time: 2 hr 26 min 28 sec) 
Heartbeat CPU 0 instructions: 109000002 cycles: 269639484 heartbeat IPC: 0.358469 cumulative IPC: 0.375088 (Simulation time: 2 hr 27 min 28 sec) 
Heartbeat CPU 0 instructions: 110000001 cycles: 272471581 heartbeat IPC: 0.353095 cumulative IPC: 0.374855 (Simulation time: 2 hr 28 min 22 sec) 
Finished CPU 0 instructions: 100000001 cycles: 266769882 cummulative IPC: 0.374855 (Simulation time: 2 hr 28 min 22 sec) 

ChampSim completed all CPUs

Region of Interest Statistics

CPU 0 cummulative IPC: 0.374855 instructions: 100000001 cycles: 266769882
LLC TOTAL     ACCESS:    4666332  HIT:    2408694  MISS:    2257638
LLC LOAD      ACCESS:    2184284  HIT:    2047376  MISS:     136908
LLC RFO       ACCESS:      24959  HIT:      12081  MISS:      12878
LLC PREFETCH  ACCESS:    2376720  HIT:     289706  MISS:    2087014
LLC WRITEBACK ACCESS:      80369  HIT:      59531  MISS:      20838
Insertion Distribution: 
	LOAD 41555 0 0 0 0 0 0 0 0 0 0 0 0 0 0 0 0 0 0 0 0 0 0 0 0 0 0 0 0 0 78938 94450 
	RFO 3364 0 0 0 0 0 0 0 0 0 0 0 0 0 0 0 0 0 0 0 0 0 0 0 0 0 0 0 0 0 4198 6944 
	PREF 0 12217 0 0 0 0 0 0 0 0 0 0 0 0 0 0 0 0 0 0 0 0 0 0 0 0 0 0 0 0 61849 2217979 
	WRITEBACK 0 0 0 0 0 0 0 0 0 0 0 0 0 0 0 0 0 0 0 0 0 0 0 0 0 0 0 0 0 0 0 21758 
Total Prefetch Downgrades: 13630
