
*** ChampSim Multicore Out-of-Order Simulator ***

Warmup Instructions: 10000000
Simulation Instructions: 100000000
Configuration: 2
Number of CPUs: 1
LLC sets: 2048
LLC ways: 16
Off-chip DRAM Channels: 1 Width: 64-bit Data Rate: 1600 MT/s

CPU 0 runs /datasets/cs240c-wi22-a00-public/data/Assignment2-gz/calculix_3812B.trace.gz
CPU 0 L1D next line prefetcher
CPU 0 L2C IP-based stride prefetcher
Initialize SRRIP state
Heartbeat CPU 0 instructions: 1000001 cycles: 478689 heartbeat IPC: 2.08904 cumulative IPC: 2.08904 (Simulation time: 0 hr 1 min 44 sec) 
Heartbeat CPU 0 instructions: 2000002 cycles: 956483 heartbeat IPC: 2.09295 cumulative IPC: 2.091 (Simulation time: 0 hr 3 min 30 sec) 
Heartbeat CPU 0 instructions: 3000002 cycles: 1434999 heartbeat IPC: 2.08979 cumulative IPC: 2.0906 (Simulation time: 0 hr 5 min 19 sec) 
Heartbeat CPU 0 instructions: 4000000 cycles: 1907482 heartbeat IPC: 2.11647 cumulative IPC: 2.09701 (Simulation time: 0 hr 7 min 5 sec) 
Heartbeat CPU 0 instructions: 5000000 cycles: 2356309 heartbeat IPC: 2.22803 cumulative IPC: 2.12196 (Simulation time: 0 hr 8 min 35 sec) 
Heartbeat CPU 0 instructions: 6000003 cycles: 2761685 heartbeat IPC: 2.46685 cumulative IPC: 2.17259 (Simulation time: 0 hr 9 min 47 sec) 
Heartbeat CPU 0 instructions: 7000002 cycles: 3154795 heartbeat IPC: 2.54381 cumulative IPC: 2.21885 (Simulation time: 0 hr 10 min 58 sec) 
Heartbeat CPU 0 instructions: 8000000 cycles: 3547936 heartbeat IPC: 2.54361 cumulative IPC: 2.25483 (Simulation time: 0 hr 11 min 59 sec) 
Heartbeat CPU 0 instructions: 9000000 cycles: 3940925 heartbeat IPC: 2.5446 cumulative IPC: 2.28373 (Simulation time: 0 hr 13 min 0 sec) 
Heartbeat CPU 0 instructions: 10000003 cycles: 4334014 heartbeat IPC: 2.54396 cumulative IPC: 2.30733 (Simulation time: 0 hr 14 min 3 sec) 

Warmup complete CPU 0 instructions: 10000003 cycles: 4334014 (Simulation time: 0 hr 14 min 3 sec) 

Heartbeat CPU 0 instructions: 11000001 cycles: 4770214 heartbeat IPC: 2.29252 cumulative IPC: 2.29252 (Simulation time: 0 hr 15 min 18 sec) 
Heartbeat CPU 0 instructions: 12000000 cycles: 5205542 heartbeat IPC: 2.29712 cumulative IPC: 2.29482 (Simulation time: 0 hr 16 min 33 sec) 
Heartbeat CPU 0 instructions: 13000002 cycles: 5640784 heartbeat IPC: 2.29758 cumulative IPC: 2.29574 (Simulation time: 0 hr 17 min 43 sec) 
Heartbeat CPU 0 instructions: 14000000 cycles: 6436084 heartbeat IPC: 1.25738 cumulative IPC: 1.90288 (Simulation time: 0 hr 19 min 2 sec) 
Heartbeat CPU 0 instructions: 15000003 cycles: 6910646 heartbeat IPC: 2.10721 cumulative IPC: 1.94052 (Simulation time: 0 hr 20 min 10 sec) 
Heartbeat CPU 0 instructions: 16000000 cycles: 7355250 heartbeat IPC: 2.24919 cumulative IPC: 1.98594 (Simulation time: 0 hr 21 min 17 sec) 
Heartbeat CPU 0 instructions: 17000001 cycles: 7797535 heartbeat IPC: 2.26099 cumulative IPC: 2.02106 (Simulation time: 0 hr 22 min 21 sec) 
Heartbeat CPU 0 instructions: 18000001 cycles: 8235589 heartbeat IPC: 2.28282 cumulative IPC: 2.05045 (Simulation time: 0 hr 23 min 27 sec) 
Heartbeat CPU 0 instructions: 19000001 cycles: 8675172 heartbeat IPC: 2.27488 cumulative IPC: 2.07318 (Simulation time: 0 hr 24 min 36 sec) 
Heartbeat CPU 0 instructions: 20000000 cycles: 9196848 heartbeat IPC: 1.9169 cumulative IPC: 2.05641 (Simulation time: 0 hr 25 min 45 sec) 
Heartbeat CPU 0 instructions: 21000001 cycles: 9636094 heartbeat IPC: 2.27663 cumulative IPC: 2.07466 (Simulation time: 0 hr 26 min 50 sec) 
Heartbeat CPU 0 instructions: 22000000 cycles: 10076059 heartbeat IPC: 2.27291 cumulative IPC: 2.08985 (Simulation time: 0 hr 27 min 56 sec) 
Heartbeat CPU 0 instructions: 23000001 cycles: 10515509 heartbeat IPC: 2.27557 cumulative IPC: 2.10305 (Simulation time: 0 hr 29 min 4 sec) 
Heartbeat CPU 0 instructions: 24000000 cycles: 10955876 heartbeat IPC: 2.27083 cumulative IPC: 2.11421 (Simulation time: 0 hr 30 min 11 sec) 
Heartbeat CPU 0 instructions: 25000003 cycles: 11480849 heartbeat IPC: 1.90487 cumulative IPC: 2.09883 (Simulation time: 0 hr 31 min 21 sec) 
Heartbeat CPU 0 instructions: 26000003 cycles: 12028316 heartbeat IPC: 1.82659 cumulative IPC: 2.07946 (Simulation time: 0 hr 32 min 32 sec) 
Heartbeat CPU 0 instructions: 27000000 cycles: 12562746 heartbeat IPC: 1.87115 cumulative IPC: 2.06593 (Simulation time: 0 hr 33 min 42 sec) 
Heartbeat CPU 0 instructions: 28000000 cycles: 13207180 heartbeat IPC: 1.55175 cumulative IPC: 2.02859 (Simulation time: 0 hr 34 min 55 sec) 
Heartbeat CPU 0 instructions: 29000002 cycles: 13685036 heartbeat IPC: 2.09268 cumulative IPC: 2.03186 (Simulation time: 0 hr 35 min 59 sec) 
Heartbeat CPU 0 instructions: 30000001 cycles: 14239736 heartbeat IPC: 1.80277 cumulative IPC: 2.01903 (Simulation time: 0 hr 37 min 13 sec) 
Heartbeat CPU 0 instructions: 31000001 cycles: 14789685 heartbeat IPC: 1.81835 cumulative IPC: 2.00848 (Simulation time: 0 hr 38 min 25 sec) 
Heartbeat CPU 0 instructions: 32000000 cycles: 15525005 heartbeat IPC: 1.35995 cumulative IPC: 1.96587 (Simulation time: 0 hr 39 min 55 sec) 
Heartbeat CPU 0 instructions: 33000003 cycles: 16229623 heartbeat IPC: 1.41921 cumulative IPC: 1.93349 (Simulation time: 0 hr 41 min 20 sec) 
Heartbeat CPU 0 instructions: 34000000 cycles: 16929563 heartbeat IPC: 1.42869 cumulative IPC: 1.90543 (Simulation time: 0 hr 42 min 44 sec) 
Heartbeat CPU 0 instructions: 35000000 cycles: 17602762 heartbeat IPC: 1.48544 cumulative IPC: 1.88413 (Simulation time: 0 hr 44 min 7 sec) 
Heartbeat CPU 0 instructions: 36000000 cycles: 18244095 heartbeat IPC: 1.55925 cumulative IPC: 1.86915 (Simulation time: 0 hr 45 min 28 sec) 
Heartbeat CPU 0 instructions: 37000002 cycles: 18869912 heartbeat IPC: 1.59791 cumulative IPC: 1.85747 (Simulation time: 0 hr 46 min 46 sec) 
Heartbeat CPU 0 instructions: 38000003 cycles: 19504919 heartbeat IPC: 1.57479 cumulative IPC: 1.84564 (Simulation time: 0 hr 48 min 4 sec) 
Heartbeat CPU 0 instructions: 39000003 cycles: 20279462 heartbeat IPC: 1.29108 cumulative IPC: 1.8187 (Simulation time: 0 hr 49 min 22 sec) 
Heartbeat CPU 0 instructions: 40000000 cycles: 21119494 heartbeat IPC: 1.19043 cumulative IPC: 1.78726 (Simulation time: 0 hr 50 min 44 sec) 
Heartbeat CPU 0 instructions: 41000000 cycles: 22055334 heartbeat IPC: 1.06856 cumulative IPC: 1.74931 (Simulation time: 0 hr 52 min 6 sec) 
Heartbeat CPU 0 instructions: 42000001 cycles: 22665734 heartbeat IPC: 1.63827 cumulative IPC: 1.74561 (Simulation time: 0 hr 53 min 26 sec) 
Heartbeat CPU 0 instructions: 43000000 cycles: 23291260 heartbeat IPC: 1.59865 cumulative IPC: 1.74076 (Simulation time: 0 hr 54 min 43 sec) 
Heartbeat CPU 0 instructions: 44000000 cycles: 23968472 heartbeat IPC: 1.47664 cumulative IPC: 1.73165 (Simulation time: 0 hr 56 min 5 sec) 
Heartbeat CPU 0 instructions: 45000002 cycles: 24642881 heartbeat IPC: 1.48278 cumulative IPC: 1.72339 (Simulation time: 0 hr 57 min 27 sec) 
Heartbeat CPU 0 instructions: 46000002 cycles: 25371177 heartbeat IPC: 1.37307 cumulative IPC: 1.71126 (Simulation time: 0 hr 58 min 50 sec) 
Heartbeat CPU 0 instructions: 47000002 cycles: 26245182 heartbeat IPC: 1.14416 cumulative IPC: 1.68864 (Simulation time: 1 hr 0 min 4 sec) 
Heartbeat CPU 0 instructions: 48000000 cycles: 26703677 heartbeat IPC: 2.18104 cumulative IPC: 1.69873 (Simulation time: 1 hr 1 min 19 sec) 
Heartbeat CPU 0 instructions: 49000000 cycles: 27162102 heartbeat IPC: 2.18138 cumulative IPC: 1.70842 (Simulation time: 1 hr 2 min 29 sec) 
Heartbeat CPU 0 instructions: 50000000 cycles: 27646795 heartbeat IPC: 2.06316 cumulative IPC: 1.7158 (Simulation time: 1 hr 3 min 37 sec) 
Heartbeat CPU 0 instructions: 51000000 cycles: 28230410 heartbeat IPC: 1.71346 cumulative IPC: 1.71574 (Simulation time: 1 hr 4 min 55 sec) 
Heartbeat CPU 0 instructions: 52000000 cycles: 28776948 heartbeat IPC: 1.8297 cumulative IPC: 1.71829 (Simulation time: 1 hr 6 min 8 sec) 
Heartbeat CPU 0 instructions: 53000000 cycles: 29242727 heartbeat IPC: 2.14694 cumulative IPC: 1.7263 (Simulation time: 1 hr 7 min 16 sec) 
Heartbeat CPU 0 instructions: 54000003 cycles: 29706755 heartbeat IPC: 2.15505 cumulative IPC: 1.73414 (Simulation time: 1 hr 8 min 27 sec) 
Heartbeat CPU 0 instructions: 55000001 cycles: 30171475 heartbeat IPC: 2.15183 cumulative IPC: 1.74166 (Simulation time: 1 hr 9 min 38 sec) 
Heartbeat CPU 0 instructions: 56000000 cycles: 30635482 heartbeat IPC: 2.15514 cumulative IPC: 1.74895 (Simulation time: 1 hr 10 min 53 sec) 
Heartbeat CPU 0 instructions: 57000003 cycles: 31104043 heartbeat IPC: 2.1342 cumulative IPC: 1.75569 (Simulation time: 1 hr 12 min 3 sec) 
Heartbeat CPU 0 instructions: 58000002 cycles: 31577503 heartbeat IPC: 2.11211 cumulative IPC: 1.76189 (Simulation time: 1 hr 13 min 15 sec) 
Heartbeat CPU 0 instructions: 59000001 cycles: 32137861 heartbeat IPC: 1.78457 cumulative IPC: 1.76235 (Simulation time: 1 hr 14 min 28 sec) 
Heartbeat CPU 0 instructions: 60000000 cycles: 32664445 heartbeat IPC: 1.89903 cumulative IPC: 1.76489 (Simulation time: 1 hr 15 min 41 sec) 
Heartbeat CPU 0 instructions: 61000003 cycles: 33197555 heartbeat IPC: 1.87579 cumulative IPC: 1.76693 (Simulation time: 1 hr 16 min 51 sec) 
Heartbeat CPU 0 instructions: 62000002 cycles: 33730345 heartbeat IPC: 1.87691 cumulative IPC: 1.76893 (Simulation time: 1 hr 18 min 1 sec) 
Heartbeat CPU 0 instructions: 63000003 cycles: 34265328 heartbeat IPC: 1.86922 cumulative IPC: 1.77072 (Simulation time: 1 hr 19 min 12 sec) 
Heartbeat CPU 0 instructions: 64000000 cycles: 34801766 heartbeat IPC: 1.86414 cumulative IPC: 1.77237 (Simulation time: 1 hr 20 min 20 sec) 
Heartbeat CPU 0 instructions: 65000000 cycles: 35485790 heartbeat IPC: 1.46194 cumulative IPC: 1.76555 (Simulation time: 1 hr 21 min 40 sec) 
Heartbeat CPU 0 instructions: 66000002 cycles: 36056586 heartbeat IPC: 1.75194 cumulative IPC: 1.7653 (Simulation time: 1 hr 22 min 49 sec) 
Heartbeat CPU 0 instructions: 67000002 cycles: 36564698 heartbeat IPC: 1.96807 cumulative IPC: 1.7685 (Simulation time: 1 hr 23 min 59 sec) 
Heartbeat CPU 0 instructions: 68000000 cycles: 37060976 heartbeat IPC: 2.015 cumulative IPC: 1.77224 (Simulation time: 1 hr 25 min 10 sec) 
Heartbeat CPU 0 instructions: 69000001 cycles: 37601182 heartbeat IPC: 1.85115 cumulative IPC: 1.77352 (Simulation time: 1 hr 26 min 22 sec) 
Heartbeat CPU 0 instructions: 70000000 cycles: 38095902 heartbeat IPC: 2.02134 cumulative IPC: 1.77715 (Simulation time: 1 hr 27 min 32 sec) 
Heartbeat CPU 0 instructions: 71000000 cycles: 38598445 heartbeat IPC: 1.98988 cumulative IPC: 1.78027 (Simulation time: 1 hr 28 min 39 sec) 
Heartbeat CPU 0 instructions: 72000000 cycles: 39111296 heartbeat IPC: 1.94988 cumulative IPC: 1.78277 (Simulation time: 1 hr 29 min 43 sec) 
Heartbeat CPU 0 instructions: 73000001 cycles: 39658180 heartbeat IPC: 1.82854 cumulative IPC: 1.78348 (Simulation time: 1 hr 30 min 52 sec) 
Heartbeat CPU 0 instructions: 74000002 cycles: 40276798 heartbeat IPC: 1.61651 cumulative IPC: 1.78061 (Simulation time: 1 hr 32 min 5 sec) 
Heartbeat CPU 0 instructions: 75000000 cycles: 40815303 heartbeat IPC: 1.85699 cumulative IPC: 1.78174 (Simulation time: 1 hr 33 min 18 sec) 
Heartbeat CPU 0 instructions: 76000000 cycles: 41541892 heartbeat IPC: 1.37629 cumulative IPC: 1.77382 (Simulation time: 1 hr 34 min 42 sec) 
Heartbeat CPU 0 instructions: 77000000 cycles: 42262855 heartbeat IPC: 1.38703 cumulative IPC: 1.76647 (Simulation time: 1 hr 36 min 3 sec) 
Heartbeat CPU 0 instructions: 78000003 cycles: 42981436 heartbeat IPC: 1.39164 cumulative IPC: 1.7595 (Simulation time: 1 hr 37 min 25 sec) 
Heartbeat CPU 0 instructions: 79000000 cycles: 43692337 heartbeat IPC: 1.40666 cumulative IPC: 1.75312 (Simulation time: 1 hr 38 min 48 sec) 
Heartbeat CPU 0 instructions: 80000000 cycles: 44377419 heartbeat IPC: 1.45968 cumulative IPC: 1.7481 (Simulation time: 1 hr 40 min 12 sec) 
Heartbeat CPU 0 instructions: 81000001 cycles: 45041751 heartbeat IPC: 1.50527 cumulative IPC: 1.74414 (Simulation time: 1 hr 41 min 35 sec) 
Heartbeat CPU 0 instructions: 82000002 cycles: 45684709 heartbeat IPC: 1.55531 cumulative IPC: 1.7412 (Simulation time: 1 hr 42 min 55 sec) 
Heartbeat CPU 0 instructions: 83000002 cycles: 46501400 heartbeat IPC: 1.22445 cumulative IPC: 1.7312 (Simulation time: 1 hr 44 min 13 sec) 
Heartbeat CPU 0 instructions: 84000000 cycles: 47246192 heartbeat IPC: 1.34265 cumulative IPC: 1.72445 (Simulation time: 1 hr 45 min 28 sec) 
Heartbeat CPU 0 instructions: 85000000 cycles: 47828707 heartbeat IPC: 1.71669 cumulative IPC: 1.72435 (Simulation time: 1 hr 46 min 39 sec) 
Heartbeat CPU 0 instructions: 86000001 cycles: 48411231 heartbeat IPC: 1.71667 cumulative IPC: 1.72425 (Simulation time: 1 hr 47 min 50 sec) 
Heartbeat CPU 0 instructions: 87000002 cycles: 48994294 heartbeat IPC: 1.71508 cumulative IPC: 1.72413 (Simulation time: 1 hr 49 min 3 sec) 
Heartbeat CPU 0 instructions: 88000000 cycles: 49574449 heartbeat IPC: 1.72367 cumulative IPC: 1.72412 (Simulation time: 1 hr 50 min 12 sec) 
Heartbeat CPU 0 instructions: 89000001 cycles: 50151986 heartbeat IPC: 1.73149 cumulative IPC: 1.72421 (Simulation time: 1 hr 51 min 23 sec) 
Heartbeat CPU 0 instructions: 90000001 cycles: 50725880 heartbeat IPC: 1.74248 cumulative IPC: 1.72444 (Simulation time: 1 hr 52 min 31 sec) 
Heartbeat CPU 0 instructions: 91000003 cycles: 51307646 heartbeat IPC: 1.71891 cumulative IPC: 1.72437 (Simulation time: 1 hr 53 min 43 sec) 
Heartbeat CPU 0 instructions: 92000000 cycles: 51780474 heartbeat IPC: 2.11493 cumulative IPC: 1.72826 (Simulation time: 1 hr 54 min 52 sec) 
Heartbeat CPU 0 instructions: 93000000 cycles: 52234412 heartbeat IPC: 2.20294 cumulative IPC: 1.73276 (Simulation time: 1 hr 56 min 2 sec) 
Heartbeat CPU 0 instructions: 94000003 cycles: 52685592 heartbeat IPC: 2.21642 cumulative IPC: 1.73728 (Simulation time: 1 hr 57 min 10 sec) 
Heartbeat CPU 0 instructions: 95000002 cycles: 53287155 heartbeat IPC: 1.66233 cumulative IPC: 1.73635 (Simulation time: 1 hr 58 min 22 sec) 
Heartbeat CPU 0 instructions: 96000000 cycles: 53813620 heartbeat IPC: 1.89946 cumulative IPC: 1.73809 (Simulation time: 1 hr 59 min 32 sec) 
Heartbeat CPU 0 instructions: 97000000 cycles: 54288605 heartbeat IPC: 2.10533 cumulative IPC: 1.74158 (Simulation time: 2 hr 0 min 37 sec) 
Heartbeat CPU 0 instructions: 98000003 cycles: 54755930 heartbeat IPC: 2.13984 cumulative IPC: 1.74527 (Simulation time: 2 hr 1 min 49 sec) 
Heartbeat CPU 0 instructions: 99000000 cycles: 55214831 heartbeat IPC: 2.17911 cumulative IPC: 1.74919 (Simulation time: 2 hr 2 min 56 sec) 
Heartbeat CPU 0 instructions: 100000000 cycles: 55671617 heartbeat IPC: 2.18921 cumulative IPC: 1.7531 (Simulation time: 2 hr 4 min 4 sec) 
Heartbeat CPU 0 instructions: 101000003 cycles: 56129469 heartbeat IPC: 2.18412 cumulative IPC: 1.75691 (Simulation time: 2 hr 5 min 10 sec) 
Heartbeat CPU 0 instructions: 102000002 cycles: 56649293 heartbeat IPC: 1.92373 cumulative IPC: 1.75857 (Simulation time: 2 hr 6 min 19 sec) 
Heartbeat CPU 0 instructions: 103000000 cycles: 57183715 heartbeat IPC: 1.87118 cumulative IPC: 1.75971 (Simulation time: 2 hr 7 min 25 sec) 
Heartbeat CPU 0 instructions: 104000000 cycles: 57714386 heartbeat IPC: 1.88441 cumulative IPC: 1.76095 (Simulation time: 2 hr 8 min 29 sec) 
Heartbeat CPU 0 instructions: 105000000 cycles: 58249632 heartbeat IPC: 1.8683 cumulative IPC: 1.76201 (Simulation time: 2 hr 9 min 38 sec) 
Heartbeat CPU 0 instructions: 106000003 cycles: 58785760 heartbeat IPC: 1.86523 cumulative IPC: 1.76303 (Simulation time: 2 hr 10 min 44 sec) 
Heartbeat CPU 0 instructions: 107000000 cycles: 59319259 heartbeat IPC: 1.87441 cumulative IPC: 1.76411 (Simulation time: 2 hr 11 min 50 sec) 
Heartbeat CPU 0 instructions: 108000000 cycles: 59909619 heartbeat IPC: 1.69388 cumulative IPC: 1.76336 (Simulation time: 2 hr 12 min 57 sec) 
Heartbeat CPU 0 instructions: 109000002 cycles: 60562297 heartbeat IPC: 1.53215 cumulative IPC: 1.76068 (Simulation time: 2 hr 14 min 9 sec) 
Heartbeat CPU 0 instructions: 110000003 cycles: 61050682 heartbeat IPC: 2.04757 cumulative IPC: 1.76315 (Simulation time: 2 hr 15 min 15 sec) 
Finished CPU 0 instructions: 100000000 cycles: 56716668 cummulative IPC: 1.76315 (Simulation time: 2 hr 15 min 15 sec) 

ChampSim completed all CPUs

Region of Interest Statistics

CPU 0 cummulative IPC: 1.76315 instructions: 100000000 cycles: 56716668
LLC TOTAL     ACCESS:    1161491  HIT:     930565  MISS:     230926
LLC LOAD      ACCESS:     133774  HIT:     123397  MISS:      10377
LLC RFO       ACCESS:      47548  HIT:      14734  MISS:      32814
LLC PREFETCH  ACCESS:     680348  HIT:     506695  MISS:     173653
LLC WRITEBACK ACCESS:     299821  HIT:     285739  MISS:      14082
Insertion Distribution: 
	LOAD 2676 0 0 0 0 0 0 0 0 0 0 0 0 0 0 0 0 0 0 0 0 0 0 0 0 0 0 0 0 0 5154 3324 
	RFO 11113 0 0 0 0 0 0 0 0 0 0 0 0 0 0 0 0 0 0 0 0 0 0 0 0 0 0 0 0 0 17365 10392 
	PREF 0 8589 0 0 0 0 0 0 0 0 0 0 0 0 0 0 0 0 0 0 0 0 0 0 0 0 0 0 0 0 17922 154503 
	WRITEBACK 0 0 0 0 0 0 0 0 0 0 0 0 0 0 0 0 0 0 0 0 0 0 0 0 0 0 0 0 0 0 0 14786 
Total Prefetch Downgrades: 7708
