
*** ChampSim Multicore Out-of-Order Simulator ***

Warmup Instructions: 10000000
Simulation Instructions: 100000000
Configuration: 2
Number of CPUs: 1
LLC sets: 2048
LLC ways: 16
Off-chip DRAM Channels: 1 Width: 64-bit Data Rate: 1600 MT/s

CPU 0 runs /datasets/cs240c-wi22-a00-public/data/Assignment2-gz/GemsFDTD_109B.trace.gz
CPU 0 L1D next line prefetcher
CPU 0 L2C IP-based stride prefetcher
Initialize SRRIP state
Heartbeat CPU 0 instructions: 1000002 cycles: 579772 heartbeat IPC: 1.72482 cumulative IPC: 1.72482 (Simulation time: 0 hr 2 min 7 sec) 
Heartbeat CPU 0 instructions: 2000001 cycles: 1159543 heartbeat IPC: 1.72482 cumulative IPC: 1.72482 (Simulation time: 0 hr 4 min 15 sec) 
Heartbeat CPU 0 instructions: 3000000 cycles: 1738739 heartbeat IPC: 1.72653 cumulative IPC: 1.72539 (Simulation time: 0 hr 6 min 23 sec) 
Heartbeat CPU 0 instructions: 4000000 cycles: 2317733 heartbeat IPC: 1.72713 cumulative IPC: 1.72582 (Simulation time: 0 hr 8 min 36 sec) 
Heartbeat CPU 0 instructions: 5000000 cycles: 2897548 heartbeat IPC: 1.72469 cumulative IPC: 1.7256 (Simulation time: 0 hr 10 min 49 sec) 
Heartbeat CPU 0 instructions: 6000002 cycles: 3478271 heartbeat IPC: 1.72199 cumulative IPC: 1.725 (Simulation time: 0 hr 12 min 51 sec) 
Heartbeat CPU 0 instructions: 7000001 cycles: 4058948 heartbeat IPC: 1.72213 cumulative IPC: 1.72459 (Simulation time: 0 hr 15 min 1 sec) 
Heartbeat CPU 0 instructions: 8000000 cycles: 4639137 heartbeat IPC: 1.72357 cumulative IPC: 1.72446 (Simulation time: 0 hr 17 min 21 sec) 
Heartbeat CPU 0 instructions: 9000002 cycles: 5219298 heartbeat IPC: 1.72366 cumulative IPC: 1.72437 (Simulation time: 0 hr 19 min 26 sec) 
Heartbeat CPU 0 instructions: 10000001 cycles: 5799491 heartbeat IPC: 1.72356 cumulative IPC: 1.72429 (Simulation time: 0 hr 21 min 21 sec) 

Warmup complete CPU 0 instructions: 10000001 cycles: 5799491 (Simulation time: 0 hr 21 min 21 sec) 

Heartbeat CPU 0 instructions: 11000002 cycles: 6842069 heartbeat IPC: 0.959162 cumulative IPC: 0.959162 (Simulation time: 0 hr 23 min 36 sec) 
Heartbeat CPU 0 instructions: 12000000 cycles: 7897487 heartbeat IPC: 0.94749 cumulative IPC: 0.95329 (Simulation time: 0 hr 25 min 58 sec) 
Heartbeat CPU 0 instructions: 13000001 cycles: 8997202 heartbeat IPC: 0.909327 cumulative IPC: 0.938171 (Simulation time: 0 hr 28 min 10 sec) 
Heartbeat CPU 0 instructions: 14000001 cycles: 10067290 heartbeat IPC: 0.934503 cumulative IPC: 0.937251 (Simulation time: 0 hr 30 min 35 sec) 
Heartbeat CPU 0 instructions: 15000000 cycles: 11136566 heartbeat IPC: 0.935211 cumulative IPC: 0.936843 (Simulation time: 0 hr 32 min 50 sec) 
Heartbeat CPU 0 instructions: 16000000 cycles: 12205020 heartbeat IPC: 0.935932 cumulative IPC: 0.936691 (Simulation time: 0 hr 35 min 8 sec) 
Heartbeat CPU 0 instructions: 17000000 cycles: 13292344 heartbeat IPC: 0.919689 cumulative IPC: 0.934223 (Simulation time: 0 hr 37 min 18 sec) 
Heartbeat CPU 0 instructions: 18000003 cycles: 14341896 heartbeat IPC: 0.95279 cumulative IPC: 0.936505 (Simulation time: 0 hr 39 min 13 sec) 
Heartbeat CPU 0 instructions: 19000001 cycles: 15405931 heartbeat IPC: 0.939817 cumulative IPC: 0.936872 (Simulation time: 0 hr 41 min 12 sec) 
Heartbeat CPU 0 instructions: 20000000 cycles: 16646440 heartbeat IPC: 0.80612 cumulative IPC: 0.921918 (Simulation time: 0 hr 43 min 0 sec) 
Heartbeat CPU 0 instructions: 21000001 cycles: 17925781 heartbeat IPC: 0.781653 cumulative IPC: 0.90712 (Simulation time: 0 hr 44 min 49 sec) 
Heartbeat CPU 0 instructions: 22000001 cycles: 21323895 heartbeat IPC: 0.294281 cumulative IPC: 0.772977 (Simulation time: 0 hr 46 min 45 sec) 
Heartbeat CPU 0 instructions: 23000001 cycles: 22590362 heartbeat IPC: 0.789598 cumulative IPC: 0.77423 (Simulation time: 0 hr 48 min 36 sec) 
Heartbeat CPU 0 instructions: 24000000 cycles: 26221638 heartbeat IPC: 0.275385 cumulative IPC: 0.68553 (Simulation time: 0 hr 50 min 36 sec) 
Heartbeat CPU 0 instructions: 25000003 cycles: 27467647 heartbeat IPC: 0.802565 cumulative IPC: 0.69226 (Simulation time: 0 hr 52 min 25 sec) 
Heartbeat CPU 0 instructions: 26000000 cycles: 31088209 heartbeat IPC: 0.276199 cumulative IPC: 0.632693 (Simulation time: 0 hr 54 min 20 sec) 
Heartbeat CPU 0 instructions: 27000000 cycles: 32303325 heartbeat IPC: 0.822967 cumulative IPC: 0.641417 (Simulation time: 0 hr 56 min 2 sec) 
Heartbeat CPU 0 instructions: 28000000 cycles: 35757770 heartbeat IPC: 0.289482 cumulative IPC: 0.600836 (Simulation time: 0 hr 57 min 54 sec) 
Heartbeat CPU 0 instructions: 29000000 cycles: 36976491 heartbeat IPC: 0.820532 cumulative IPC: 0.609424 (Simulation time: 0 hr 59 min 38 sec) 
Heartbeat CPU 0 instructions: 30000003 cycles: 38262092 heartbeat IPC: 0.777849 cumulative IPC: 0.616094 (Simulation time: 1 hr 1 min 13 sec) 
Heartbeat CPU 0 instructions: 31000002 cycles: 39429559 heartbeat IPC: 0.856554 cumulative IPC: 0.624441 (Simulation time: 1 hr 2 min 57 sec) 
Heartbeat CPU 0 instructions: 32000000 cycles: 40699576 heartbeat IPC: 0.787389 cumulative IPC: 0.630371 (Simulation time: 1 hr 4 min 28 sec) 
Heartbeat CPU 0 instructions: 33000003 cycles: 41863421 heartbeat IPC: 0.859224 cumulative IPC: 0.637756 (Simulation time: 1 hr 6 min 13 sec) 
Heartbeat CPU 0 instructions: 34000002 cycles: 43146268 heartbeat IPC: 0.779515 cumulative IPC: 0.642626 (Simulation time: 1 hr 7 min 42 sec) 
Heartbeat CPU 0 instructions: 35000003 cycles: 44331120 heartbeat IPC: 0.843988 cumulative IPC: 0.648818 (Simulation time: 1 hr 9 min 21 sec) 
Heartbeat CPU 0 instructions: 36000000 cycles: 45679547 heartbeat IPC: 0.741603 cumulative IPC: 0.651955 (Simulation time: 1 hr 11 min 2 sec) 
Heartbeat CPU 0 instructions: 37000000 cycles: 47009228 heartbeat IPC: 0.75206 cumulative IPC: 0.655185 (Simulation time: 1 hr 12 min 55 sec) 
Heartbeat CPU 0 instructions: 38000001 cycles: 48338766 heartbeat IPC: 0.752142 cumulative IPC: 0.658215 (Simulation time: 1 hr 14 min 45 sec) 
Heartbeat CPU 0 instructions: 39000000 cycles: 49668155 heartbeat IPC: 0.752225 cumulative IPC: 0.661064 (Simulation time: 1 hr 16 min 34 sec) 
Heartbeat CPU 0 instructions: 40000000 cycles: 50997755 heartbeat IPC: 0.752106 cumulative IPC: 0.663742 (Simulation time: 1 hr 18 min 25 sec) 
Heartbeat CPU 0 instructions: 41000000 cycles: 52260490 heartbeat IPC: 0.791932 cumulative IPC: 0.667226 (Simulation time: 1 hr 19 min 59 sec) 
Heartbeat CPU 0 instructions: 42000000 cycles: 53590155 heartbeat IPC: 0.752069 cumulative IPC: 0.669587 (Simulation time: 1 hr 21 min 51 sec) 
Heartbeat CPU 0 instructions: 43000002 cycles: 54919824 heartbeat IPC: 0.752068 cumulative IPC: 0.67182 (Simulation time: 1 hr 23 min 44 sec) 
Heartbeat CPU 0 instructions: 44000000 cycles: 56249325 heartbeat IPC: 0.75216 cumulative IPC: 0.673937 (Simulation time: 1 hr 25 min 35 sec) 
Heartbeat CPU 0 instructions: 45000001 cycles: 57578745 heartbeat IPC: 0.752208 cumulative IPC: 0.675946 (Simulation time: 1 hr 27 min 25 sec) 
Heartbeat CPU 0 instructions: 46000003 cycles: 58964368 heartbeat IPC: 0.721698 cumulative IPC: 0.677139 (Simulation time: 1 hr 29 min 10 sec) 
Heartbeat CPU 0 instructions: 47000001 cycles: 60107944 heartbeat IPC: 0.874448 cumulative IPC: 0.681294 (Simulation time: 1 hr 30 min 31 sec) 
Heartbeat CPU 0 instructions: 48000000 cycles: 61478844 heartbeat IPC: 0.729447 cumulative IPC: 0.682479 (Simulation time: 1 hr 31 min 57 sec) 
Heartbeat CPU 0 instructions: 49000003 cycles: 71087875 heartbeat IPC: 0.104069 cumulative IPC: 0.59735 (Simulation time: 1 hr 35 min 6 sec) 
Heartbeat CPU 0 instructions: 50000001 cycles: 72893412 heartbeat IPC: 0.553851 cumulative IPC: 0.596179 (Simulation time: 1 hr 36 min 56 sec) 
Heartbeat CPU 0 instructions: 51000003 cycles: 74505820 heartbeat IPC: 0.620192 cumulative IPC: 0.596743 (Simulation time: 1 hr 38 min 53 sec) 
Heartbeat CPU 0 instructions: 52000000 cycles: 76123560 heartbeat IPC: 0.618144 cumulative IPC: 0.597235 (Simulation time: 1 hr 40 min 51 sec) 
Heartbeat CPU 0 instructions: 53000000 cycles: 77749121 heartbeat IPC: 0.615172 cumulative IPC: 0.59764 (Simulation time: 1 hr 42 min 46 sec) 
Heartbeat CPU 0 instructions: 54000000 cycles: 79366248 heartbeat IPC: 0.618381 cumulative IPC: 0.598096 (Simulation time: 1 hr 44 min 38 sec) 
Heartbeat CPU 0 instructions: 55000000 cycles: 80957685 heartbeat IPC: 0.628363 cumulative IPC: 0.598737 (Simulation time: 1 hr 46 min 34 sec) 
Heartbeat CPU 0 instructions: 56000000 cycles: 82561528 heartbeat IPC: 0.623502 cumulative IPC: 0.599255 (Simulation time: 1 hr 48 min 29 sec) 
Heartbeat CPU 0 instructions: 57000003 cycles: 84220872 heartbeat IPC: 0.60265 cumulative IPC: 0.599326 (Simulation time: 1 hr 50 min 28 sec) 
Heartbeat CPU 0 instructions: 58000002 cycles: 85835646 heartbeat IPC: 0.619281 cumulative IPC: 0.599729 (Simulation time: 1 hr 52 min 19 sec) 
Heartbeat CPU 0 instructions: 59000001 cycles: 87443908 heartbeat IPC: 0.621789 cumulative IPC: 0.600164 (Simulation time: 1 hr 54 min 15 sec) 
Heartbeat CPU 0 instructions: 60000000 cycles: 89082106 heartbeat IPC: 0.610426 cumulative IPC: 0.600365 (Simulation time: 1 hr 56 min 14 sec) 
Heartbeat CPU 0 instructions: 61000000 cycles: 90679383 heartbeat IPC: 0.626065 cumulative IPC: 0.600849 (Simulation time: 1 hr 58 min 7 sec) 
Heartbeat CPU 0 instructions: 62000000 cycles: 92279633 heartbeat IPC: 0.624902 cumulative IPC: 0.601294 (Simulation time: 2 hr 0 min 0 sec) 
Heartbeat CPU 0 instructions: 63000002 cycles: 93888757 heartbeat IPC: 0.621457 cumulative IPC: 0.601662 (Simulation time: 2 hr 1 min 55 sec) 
Heartbeat CPU 0 instructions: 64000000 cycles: 95521782 heartbeat IPC: 0.612359 cumulative IPC: 0.601857 (Simulation time: 2 hr 3 min 48 sec) 
Heartbeat CPU 0 instructions: 65000003 cycles: 97165212 heartbeat IPC: 0.608485 cumulative IPC: 0.601976 (Simulation time: 2 hr 5 min 42 sec) 
Heartbeat CPU 0 instructions: 66000001 cycles: 98813116 heartbeat IPC: 0.60683 cumulative IPC: 0.602062 (Simulation time: 2 hr 7 min 38 sec) 
Heartbeat CPU 0 instructions: 67000000 cycles: 100426675 heartbeat IPC: 0.619747 cumulative IPC: 0.602364 (Simulation time: 2 hr 9 min 32 sec) 
Heartbeat CPU 0 instructions: 68000000 cycles: 102060161 heartbeat IPC: 0.612188 cumulative IPC: 0.602531 (Simulation time: 2 hr 11 min 22 sec) 
Heartbeat CPU 0 instructions: 69000000 cycles: 103691478 heartbeat IPC: 0.613002 cumulative IPC: 0.602705 (Simulation time: 2 hr 13 min 9 sec) 
Heartbeat CPU 0 instructions: 70000003 cycles: 105282923 heartbeat IPC: 0.628362 cumulative IPC: 0.603115 (Simulation time: 2 hr 14 min 59 sec) 
Heartbeat CPU 0 instructions: 71000003 cycles: 106906252 heartbeat IPC: 0.616018 cumulative IPC: 0.603323 (Simulation time: 2 hr 16 min 39 sec) 
Heartbeat CPU 0 instructions: 72000000 cycles: 108507760 heartbeat IPC: 0.62441 cumulative IPC: 0.603651 (Simulation time: 2 hr 18 min 21 sec) 
Heartbeat CPU 0 instructions: 73000002 cycles: 110127472 heartbeat IPC: 0.617395 cumulative IPC: 0.603865 (Simulation time: 2 hr 20 min 9 sec) 
Heartbeat CPU 0 instructions: 74000000 cycles: 111757959 heartbeat IPC: 0.613312 cumulative IPC: 0.60401 (Simulation time: 2 hr 21 min 53 sec) 
Heartbeat CPU 0 instructions: 75000000 cycles: 113401382 heartbeat IPC: 0.608486 cumulative IPC: 0.604079 (Simulation time: 2 hr 23 min 33 sec) 
Heartbeat CPU 0 instructions: 76000000 cycles: 115002412 heartbeat IPC: 0.624598 cumulative IPC: 0.604379 (Simulation time: 2 hr 25 min 14 sec) 
Heartbeat CPU 0 instructions: 77000003 cycles: 116638485 heartbeat IPC: 0.611221 cumulative IPC: 0.60448 (Simulation time: 2 hr 26 min 41 sec) 
Heartbeat CPU 0 instructions: 78000001 cycles: 118251757 heartbeat IPC: 0.619857 cumulative IPC: 0.604701 (Simulation time: 2 hr 28 min 4 sec) 
Heartbeat CPU 0 instructions: 79000001 cycles: 119844055 heartbeat IPC: 0.628023 cumulative IPC: 0.605027 (Simulation time: 2 hr 29 min 17 sec) 
Heartbeat CPU 0 instructions: 80000000 cycles: 121449447 heartbeat IPC: 0.6229 cumulative IPC: 0.605275 (Simulation time: 2 hr 30 min 31 sec) 
Heartbeat CPU 0 instructions: 81000001 cycles: 123067782 heartbeat IPC: 0.61792 cumulative IPC: 0.605449 (Simulation time: 2 hr 31 min 38 sec) 
Heartbeat CPU 0 instructions: 82000000 cycles: 124681268 heartbeat IPC: 0.619775 cumulative IPC: 0.605644 (Simulation time: 2 hr 32 min 45 sec) 
Heartbeat CPU 0 instructions: 83000003 cycles: 126286627 heartbeat IPC: 0.622916 cumulative IPC: 0.605874 (Simulation time: 2 hr 33 min 47 sec) 
Heartbeat CPU 0 instructions: 84000000 cycles: 127887056 heartbeat IPC: 0.624831 cumulative IPC: 0.606122 (Simulation time: 2 hr 34 min 56 sec) 
Heartbeat CPU 0 instructions: 85000001 cycles: 129512148 heartbeat IPC: 0.61535 cumulative IPC: 0.606244 (Simulation time: 2 hr 35 min 54 sec) 
Heartbeat CPU 0 instructions: 86000001 cycles: 131137391 heartbeat IPC: 0.615293 cumulative IPC: 0.606361 (Simulation time: 2 hr 36 min 59 sec) 
Heartbeat CPU 0 instructions: 87000002 cycles: 132750268 heartbeat IPC: 0.620011 cumulative IPC: 0.606534 (Simulation time: 2 hr 37 min 58 sec) 
Heartbeat CPU 0 instructions: 88000000 cycles: 134385130 heartbeat IPC: 0.611671 cumulative IPC: 0.6066 (Simulation time: 2 hr 38 min 54 sec) 
Heartbeat CPU 0 instructions: 89000003 cycles: 136033789 heartbeat IPC: 0.606555 cumulative IPC: 0.606599 (Simulation time: 2 hr 39 min 45 sec) 
Heartbeat CPU 0 instructions: 90000000 cycles: 137687870 heartbeat IPC: 0.604563 cumulative IPC: 0.606574 (Simulation time: 2 hr 40 min 37 sec) 
Heartbeat CPU 0 instructions: 91000002 cycles: 139332919 heartbeat IPC: 0.607886 cumulative IPC: 0.60659 (Simulation time: 2 hr 41 min 28 sec) 
Heartbeat CPU 0 instructions: 92000000 cycles: 140958832 heartbeat IPC: 0.615038 cumulative IPC: 0.606691 (Simulation time: 2 hr 42 min 14 sec) 
Heartbeat CPU 0 instructions: 93000001 cycles: 142586684 heartbeat IPC: 0.614307 cumulative IPC: 0.606782 (Simulation time: 2 hr 42 min 59 sec) 
Heartbeat CPU 0 instructions: 94000000 cycles: 144192809 heartbeat IPC: 0.622616 cumulative IPC: 0.606966 (Simulation time: 2 hr 43 min 42 sec) 
Heartbeat CPU 0 instructions: 95000000 cycles: 145801522 heartbeat IPC: 0.621615 cumulative IPC: 0.607134 (Simulation time: 2 hr 44 min 27 sec) 
Heartbeat CPU 0 instructions: 96000000 cycles: 147416934 heartbeat IPC: 0.619037 cumulative IPC: 0.60727 (Simulation time: 2 hr 45 min 9 sec) 
Heartbeat CPU 0 instructions: 97000002 cycles: 149036124 heartbeat IPC: 0.617594 cumulative IPC: 0.607387 (Simulation time: 2 hr 45 min 49 sec) 
Heartbeat CPU 0 instructions: 98000003 cycles: 150672225 heartbeat IPC: 0.61121 cumulative IPC: 0.60743 (Simulation time: 2 hr 46 min 26 sec) 
Heartbeat CPU 0 instructions: 99000001 cycles: 152256390 heartbeat IPC: 0.631246 cumulative IPC: 0.607687 (Simulation time: 2 hr 47 min 2 sec) 
Heartbeat CPU 0 instructions: 100000000 cycles: 153894182 heartbeat IPC: 0.610578 cumulative IPC: 0.607719 (Simulation time: 2 hr 47 min 36 sec) 
Heartbeat CPU 0 instructions: 101000001 cycles: 155524996 heartbeat IPC: 0.613191 cumulative IPC: 0.607779 (Simulation time: 2 hr 48 min 8 sec) 
Heartbeat CPU 0 instructions: 102000000 cycles: 157161550 heartbeat IPC: 0.611039 cumulative IPC: 0.607814 (Simulation time: 2 hr 48 min 41 sec) 
Heartbeat CPU 0 instructions: 103000000 cycles: 158773162 heartbeat IPC: 0.620497 cumulative IPC: 0.607948 (Simulation time: 2 hr 49 min 12 sec) 
Heartbeat CPU 0 instructions: 104000000 cycles: 160402153 heartbeat IPC: 0.613877 cumulative IPC: 0.60801 (Simulation time: 2 hr 49 min 44 sec) 
Heartbeat CPU 0 instructions: 105000000 cycles: 162043966 heartbeat IPC: 0.609083 cumulative IPC: 0.608021 (Simulation time: 2 hr 50 min 12 sec) 
Heartbeat CPU 0 instructions: 106000001 cycles: 163670944 heartbeat IPC: 0.614637 cumulative IPC: 0.60809 (Simulation time: 2 hr 50 min 38 sec) 
Heartbeat CPU 0 instructions: 107000001 cycles: 165298912 heartbeat IPC: 0.614263 cumulative IPC: 0.608153 (Simulation time: 2 hr 51 min 1 sec) 
Heartbeat CPU 0 instructions: 108000000 cycles: 166934239 heartbeat IPC: 0.611498 cumulative IPC: 0.608187 (Simulation time: 2 hr 51 min 22 sec) 
Heartbeat CPU 0 instructions: 109000000 cycles: 168528152 heartbeat IPC: 0.627387 cumulative IPC: 0.608375 (Simulation time: 2 hr 51 min 42 sec) 
Heartbeat CPU 0 instructions: 110000001 cycles: 170147844 heartbeat IPC: 0.617402 cumulative IPC: 0.608464 (Simulation time: 2 hr 52 min 1 sec) 
Finished CPU 0 instructions: 100000000 cycles: 164348353 cummulative IPC: 0.608464 (Simulation time: 2 hr 52 min 1 sec) 

ChampSim completed all CPUs

Region of Interest Statistics

CPU 0 cummulative IPC: 0.608464 instructions: 100000000 cycles: 164348353
LLC TOTAL     ACCESS:    4812500  HIT:     531734  MISS:    4280766
LLC LOAD      ACCESS:     461760  HIT:      37213  MISS:     424547
LLC RFO       ACCESS:     126472  HIT:     117009  MISS:       9463
LLC PREFETCH  ACCESS:    2859979  HIT:     129940  MISS:    2730039
LLC WRITEBACK ACCESS:    1364289  HIT:     247572  MISS:    1116717
Insertion Distribution: 
	LOAD 26219 0 0 0 0 0 0 0 0 0 0 0 0 0 0 0 0 0 0 0 0 0 0 0 0 0 0 0 0 0 48190 359672 
	RFO 57 0 0 0 0 0 0 0 0 0 0 0 0 0 0 0 0 0 0 0 0 0 0 0 0 0 0 0 0 0 8629 779 
	PREF 0 8573 0 0 0 0 0 0 0 0 0 0 0 0 0 0 0 0 0 0 0 0 0 0 0 0 0 0 0 0 181846 2777360 
	WRITEBACK 0 0 0 0 0 0 0 0 0 0 0 0 0 0 0 0 0 0 0 0 0 0 0 0 0 0 0 0 0 0 0 1231660 
Total Prefetch Downgrades: 6877
