
*** ChampSim Multicore Out-of-Order Simulator ***

Warmup Instructions: 10000000
Simulation Instructions: 100000000
Configuration: 2
Number of CPUs: 1
LLC sets: 2048
LLC ways: 16
Off-chip DRAM Channels: 1 Width: 64-bit Data Rate: 1600 MT/s

CPU 0 runs /datasets/cs240c-wi22-a00-public/data/Assignment2-gz/wrf_1650B.trace.gz
CPU 0 L1D next line prefetcher
CPU 0 L2C IP-based stride prefetcher
Initialize SRRIP state
Heartbeat CPU 0 instructions: 1000000 cycles: 514299 heartbeat IPC: 1.94439 cumulative IPC: 1.94439 (Simulation time: 0 hr 1 min 31 sec) 
Heartbeat CPU 0 instructions: 2000000 cycles: 1028473 heartbeat IPC: 1.94487 cumulative IPC: 1.94463 (Simulation time: 0 hr 2 min 58 sec) 
Heartbeat CPU 0 instructions: 3000001 cycles: 1546184 heartbeat IPC: 1.93158 cumulative IPC: 1.94026 (Simulation time: 0 hr 4 min 23 sec) 
Heartbeat CPU 0 instructions: 4000000 cycles: 2063940 heartbeat IPC: 1.93141 cumulative IPC: 1.93804 (Simulation time: 0 hr 5 min 52 sec) 
Heartbeat CPU 0 instructions: 5000001 cycles: 2581687 heartbeat IPC: 1.93145 cumulative IPC: 1.93672 (Simulation time: 0 hr 7 min 18 sec) 
Heartbeat CPU 0 instructions: 6000003 cycles: 3099505 heartbeat IPC: 1.93118 cumulative IPC: 1.93579 (Simulation time: 0 hr 8 min 48 sec) 
Heartbeat CPU 0 instructions: 7000000 cycles: 3617214 heartbeat IPC: 1.93158 cumulative IPC: 1.93519 (Simulation time: 0 hr 10 min 19 sec) 
Heartbeat CPU 0 instructions: 8000000 cycles: 4135023 heartbeat IPC: 1.93121 cumulative IPC: 1.93469 (Simulation time: 0 hr 11 min 44 sec) 
Heartbeat CPU 0 instructions: 9000001 cycles: 4649336 heartbeat IPC: 1.94434 cumulative IPC: 1.93576 (Simulation time: 0 hr 13 min 8 sec) 
Heartbeat CPU 0 instructions: 10000001 cycles: 5163453 heartbeat IPC: 1.94508 cumulative IPC: 1.93669 (Simulation time: 0 hr 14 min 32 sec) 

Warmup complete CPU 0 instructions: 10000001 cycles: 5163453 (Simulation time: 0 hr 14 min 32 sec) 

Heartbeat CPU 0 instructions: 11000000 cycles: 6646675 heartbeat IPC: 0.674207 cumulative IPC: 0.674207 (Simulation time: 0 hr 16 min 22 sec) 
Heartbeat CPU 0 instructions: 12000000 cycles: 8135729 heartbeat IPC: 0.671567 cumulative IPC: 0.672885 (Simulation time: 0 hr 18 min 13 sec) 
Heartbeat CPU 0 instructions: 13000002 cycles: 9629724 heartbeat IPC: 0.669348 cumulative IPC: 0.671701 (Simulation time: 0 hr 20 min 0 sec) 
Heartbeat CPU 0 instructions: 14000002 cycles: 11124015 heartbeat IPC: 0.669214 cumulative IPC: 0.671078 (Simulation time: 0 hr 21 min 45 sec) 
Heartbeat CPU 0 instructions: 15000001 cycles: 12618833 heartbeat IPC: 0.668977 cumulative IPC: 0.670657 (Simulation time: 0 hr 23 min 29 sec) 
Heartbeat CPU 0 instructions: 16000000 cycles: 14113265 heartbeat IPC: 0.66915 cumulative IPC: 0.670405 (Simulation time: 0 hr 25 min 15 sec) 
Heartbeat CPU 0 instructions: 17000000 cycles: 15607540 heartbeat IPC: 0.669221 cumulative IPC: 0.670236 (Simulation time: 0 hr 26 min 54 sec) 
Heartbeat CPU 0 instructions: 18000001 cycles: 17095469 heartbeat IPC: 0.672076 cumulative IPC: 0.670465 (Simulation time: 0 hr 28 min 57 sec) 
Heartbeat CPU 0 instructions: 19000003 cycles: 18577611 heartbeat IPC: 0.674701 cumulative IPC: 0.670933 (Simulation time: 0 hr 31 min 0 sec) 
Heartbeat CPU 0 instructions: 20000000 cycles: 20060902 heartbeat IPC: 0.674175 cumulative IPC: 0.671256 (Simulation time: 0 hr 32 min 50 sec) 
Heartbeat CPU 0 instructions: 21000000 cycles: 21544828 heartbeat IPC: 0.673888 cumulative IPC: 0.671494 (Simulation time: 0 hr 34 min 33 sec) 
Heartbeat CPU 0 instructions: 22000000 cycles: 23038726 heartbeat IPC: 0.66939 cumulative IPC: 0.671318 (Simulation time: 0 hr 36 min 20 sec) 
Heartbeat CPU 0 instructions: 23000003 cycles: 24534146 heartbeat IPC: 0.66871 cumulative IPC: 0.671117 (Simulation time: 0 hr 38 min 8 sec) 
Heartbeat CPU 0 instructions: 24000000 cycles: 26027752 heartbeat IPC: 0.669519 cumulative IPC: 0.671003 (Simulation time: 0 hr 39 min 58 sec) 
Heartbeat CPU 0 instructions: 25000000 cycles: 27522673 heartbeat IPC: 0.668932 cumulative IPC: 0.670864 (Simulation time: 0 hr 41 min 46 sec) 
Heartbeat CPU 0 instructions: 26000001 cycles: 29017430 heartbeat IPC: 0.669006 cumulative IPC: 0.670748 (Simulation time: 0 hr 43 min 37 sec) 
Heartbeat CPU 0 instructions: 27000003 cycles: 30510702 heartbeat IPC: 0.669672 cumulative IPC: 0.670684 (Simulation time: 0 hr 45 min 28 sec) 
Heartbeat CPU 0 instructions: 28000000 cycles: 31993187 heartbeat IPC: 0.674541 cumulative IPC: 0.670897 (Simulation time: 0 hr 47 min 15 sec) 
Heartbeat CPU 0 instructions: 29000001 cycles: 33476108 heartbeat IPC: 0.674345 cumulative IPC: 0.671078 (Simulation time: 0 hr 49 min 1 sec) 
Heartbeat CPU 0 instructions: 30000001 cycles: 34959463 heartbeat IPC: 0.674147 cumulative IPC: 0.671231 (Simulation time: 0 hr 50 min 50 sec) 
Heartbeat CPU 0 instructions: 31000000 cycles: 36450339 heartbeat IPC: 0.670746 cumulative IPC: 0.671208 (Simulation time: 0 hr 52 min 39 sec) 
Heartbeat CPU 0 instructions: 32000000 cycles: 37944205 heartbeat IPC: 0.669404 cumulative IPC: 0.671126 (Simulation time: 0 hr 54 min 26 sec) 
Heartbeat CPU 0 instructions: 33000001 cycles: 39438165 heartbeat IPC: 0.669363 cumulative IPC: 0.671049 (Simulation time: 0 hr 56 min 14 sec) 
Heartbeat CPU 0 instructions: 34000002 cycles: 40932447 heartbeat IPC: 0.669218 cumulative IPC: 0.670972 (Simulation time: 0 hr 58 min 0 sec) 
Heartbeat CPU 0 instructions: 35000001 cycles: 42427793 heartbeat IPC: 0.668741 cumulative IPC: 0.670883 (Simulation time: 0 hr 59 min 48 sec) 
Heartbeat CPU 0 instructions: 36000000 cycles: 43922710 heartbeat IPC: 0.668933 cumulative IPC: 0.670807 (Simulation time: 1 hr 1 min 42 sec) 
Heartbeat CPU 0 instructions: 37000003 cycles: 45408870 heartbeat IPC: 0.672877 cumulative IPC: 0.670884 (Simulation time: 1 hr 3 min 31 sec) 
Heartbeat CPU 0 instructions: 38000000 cycles: 46891586 heartbeat IPC: 0.674436 cumulative IPC: 0.67101 (Simulation time: 1 hr 5 min 19 sec) 
Heartbeat CPU 0 instructions: 39000001 cycles: 48375465 heartbeat IPC: 0.67391 cumulative IPC: 0.67111 (Simulation time: 1 hr 7 min 5 sec) 
Heartbeat CPU 0 instructions: 40000000 cycles: 49861326 heartbeat IPC: 0.67301 cumulative IPC: 0.671173 (Simulation time: 1 hr 8 min 53 sec) 
Heartbeat CPU 0 instructions: 41000000 cycles: 51355412 heartbeat IPC: 0.669306 cumulative IPC: 0.671112 (Simulation time: 1 hr 10 min 47 sec) 
Heartbeat CPU 0 instructions: 42000001 cycles: 52851232 heartbeat IPC: 0.66853 cumulative IPC: 0.671031 (Simulation time: 1 hr 12 min 34 sec) 
Heartbeat CPU 0 instructions: 43000001 cycles: 54345355 heartbeat IPC: 0.669289 cumulative IPC: 0.670979 (Simulation time: 1 hr 14 min 24 sec) 
Heartbeat CPU 0 instructions: 44000000 cycles: 55840997 heartbeat IPC: 0.668609 cumulative IPC: 0.670909 (Simulation time: 1 hr 16 min 14 sec) 
Heartbeat CPU 0 instructions: 45000000 cycles: 57335388 heartbeat IPC: 0.669169 cumulative IPC: 0.670859 (Simulation time: 1 hr 17 min 59 sec) 
Heartbeat CPU 0 instructions: 46000002 cycles: 59610340 heartbeat IPC: 0.439571 cumulative IPC: 0.661195 (Simulation time: 1 hr 20 min 0 sec) 
Heartbeat CPU 0 instructions: 47000002 cycles: 61171185 heartbeat IPC: 0.640679 cumulative IPC: 0.660623 (Simulation time: 1 hr 21 min 44 sec) 
Heartbeat CPU 0 instructions: 48000000 cycles: 62828129 heartbeat IPC: 0.603519 cumulative IPC: 0.658982 (Simulation time: 1 hr 23 min 22 sec) 
Heartbeat CPU 0 instructions: 49000001 cycles: 64484110 heartbeat IPC: 0.603872 cumulative IPC: 0.657444 (Simulation time: 1 hr 25 min 10 sec) 
Heartbeat CPU 0 instructions: 50000000 cycles: 66133066 heartbeat IPC: 0.606444 cumulative IPC: 0.656065 (Simulation time: 1 hr 26 min 52 sec) 
Heartbeat CPU 0 instructions: 51000000 cycles: 67899130 heartbeat IPC: 0.566231 cumulative IPC: 0.653536 (Simulation time: 1 hr 28 min 33 sec) 
Heartbeat CPU 0 instructions: 52000000 cycles: 69623514 heartbeat IPC: 0.579917 cumulative IPC: 0.651566 (Simulation time: 1 hr 30 min 19 sec) 
Heartbeat CPU 0 instructions: 53000002 cycles: 70648342 heartbeat IPC: 0.975775 cumulative IPC: 0.65664 (Simulation time: 1 hr 31 min 56 sec) 
Heartbeat CPU 0 instructions: 54000001 cycles: 71537203 heartbeat IPC: 1.12503 cumulative IPC: 0.662913 (Simulation time: 1 hr 33 min 30 sec) 
Heartbeat CPU 0 instructions: 55000000 cycles: 72438494 heartbeat IPC: 1.10952 cumulative IPC: 0.668896 (Simulation time: 1 hr 35 min 4 sec) 
Heartbeat CPU 0 instructions: 56000000 cycles: 73323956 heartbeat IPC: 1.12935 cumulative IPC: 0.674878 (Simulation time: 1 hr 36 min 31 sec) 
Heartbeat CPU 0 instructions: 57000001 cycles: 74208177 heartbeat IPC: 1.13094 cumulative IPC: 0.680718 (Simulation time: 1 hr 38 min 4 sec) 
Heartbeat CPU 0 instructions: 58000002 cycles: 75092863 heartbeat IPC: 1.13035 cumulative IPC: 0.686406 (Simulation time: 1 hr 39 min 39 sec) 
Heartbeat CPU 0 instructions: 59000002 cycles: 75978601 heartbeat IPC: 1.129 cumulative IPC: 0.691942 (Simulation time: 1 hr 41 min 15 sec) 
Heartbeat CPU 0 instructions: 60000000 cycles: 76866701 heartbeat IPC: 1.126 cumulative IPC: 0.697318 (Simulation time: 1 hr 42 min 47 sec) 
Heartbeat CPU 0 instructions: 61000003 cycles: 78159213 heartbeat IPC: 0.77369 cumulative IPC: 0.698671 (Simulation time: 1 hr 44 min 21 sec) 
Heartbeat CPU 0 instructions: 62000002 cycles: 79647019 heartbeat IPC: 0.67213 cumulative IPC: 0.698141 (Simulation time: 1 hr 45 min 57 sec) 
Heartbeat CPU 0 instructions: 63000002 cycles: 81132780 heartbeat IPC: 0.673056 cumulative IPC: 0.69765 (Simulation time: 1 hr 47 min 35 sec) 
Heartbeat CPU 0 instructions: 64000000 cycles: 82618596 heartbeat IPC: 0.673029 cumulative IPC: 0.697178 (Simulation time: 1 hr 49 min 11 sec) 
Heartbeat CPU 0 instructions: 65000001 cycles: 84106572 heartbeat IPC: 0.672055 cumulative IPC: 0.696704 (Simulation time: 1 hr 50 min 49 sec) 
Heartbeat CPU 0 instructions: 66000000 cycles: 85591987 heartbeat IPC: 0.673212 cumulative IPC: 0.69627 (Simulation time: 1 hr 52 min 20 sec) 
Heartbeat CPU 0 instructions: 67000001 cycles: 87080823 heartbeat IPC: 0.671666 cumulative IPC: 0.695823 (Simulation time: 1 hr 53 min 59 sec) 
Heartbeat CPU 0 instructions: 68000000 cycles: 88566921 heartbeat IPC: 0.672902 cumulative IPC: 0.695415 (Simulation time: 1 hr 55 min 40 sec) 
Heartbeat CPU 0 instructions: 69000002 cycles: 90052595 heartbeat IPC: 0.673097 cumulative IPC: 0.695024 (Simulation time: 1 hr 57 min 16 sec) 
Heartbeat CPU 0 instructions: 70000000 cycles: 91539095 heartbeat IPC: 0.67272 cumulative IPC: 0.69464 (Simulation time: 1 hr 58 min 54 sec) 
Heartbeat CPU 0 instructions: 71000001 cycles: 93026193 heartbeat IPC: 0.672451 cumulative IPC: 0.694265 (Simulation time: 2 hr 0 min 29 sec) 
Heartbeat CPU 0 instructions: 72000000 cycles: 94513859 heartbeat IPC: 0.672193 cumulative IPC: 0.693897 (Simulation time: 2 hr 2 min 7 sec) 
Heartbeat CPU 0 instructions: 73000000 cycles: 96000021 heartbeat IPC: 0.672874 cumulative IPC: 0.693553 (Simulation time: 2 hr 3 min 44 sec) 
Heartbeat CPU 0 instructions: 74000003 cycles: 97485720 heartbeat IPC: 0.673086 cumulative IPC: 0.693224 (Simulation time: 2 hr 5 min 24 sec) 
Heartbeat CPU 0 instructions: 75000003 cycles: 98972220 heartbeat IPC: 0.672721 cumulative IPC: 0.692899 (Simulation time: 2 hr 6 min 59 sec) 
Heartbeat CPU 0 instructions: 76000000 cycles: 100458448 heartbeat IPC: 0.672842 cumulative IPC: 0.692586 (Simulation time: 2 hr 8 min 33 sec) 
Heartbeat CPU 0 instructions: 77000002 cycles: 101946858 heartbeat IPC: 0.671859 cumulative IPC: 0.692267 (Simulation time: 2 hr 10 min 17 sec) 
Heartbeat CPU 0 instructions: 78000001 cycles: 103434212 heartbeat IPC: 0.672334 cumulative IPC: 0.691966 (Simulation time: 2 hr 11 min 48 sec) 
Heartbeat CPU 0 instructions: 79000001 cycles: 104922207 heartbeat IPC: 0.672045 cumulative IPC: 0.691669 (Simulation time: 2 hr 13 min 19 sec) 
Heartbeat CPU 0 instructions: 80000000 cycles: 106407762 heartbeat IPC: 0.673148 cumulative IPC: 0.691397 (Simulation time: 2 hr 14 min 52 sec) 
Heartbeat CPU 0 instructions: 81000000 cycles: 107895509 heartbeat IPC: 0.672157 cumulative IPC: 0.691118 (Simulation time: 2 hr 16 min 17 sec) 
Heartbeat CPU 0 instructions: 82000003 cycles: 109380895 heartbeat IPC: 0.673228 cumulative IPC: 0.690863 (Simulation time: 2 hr 17 min 44 sec) 
Heartbeat CPU 0 instructions: 83000003 cycles: 110870518 heartbeat IPC: 0.671311 cumulative IPC: 0.690588 (Simulation time: 2 hr 19 min 17 sec) 
Heartbeat CPU 0 instructions: 84000000 cycles: 112356418 heartbeat IPC: 0.672991 cumulative IPC: 0.690344 (Simulation time: 2 hr 20 min 45 sec) 
Heartbeat CPU 0 instructions: 85000002 cycles: 113842671 heartbeat IPC: 0.672834 cumulative IPC: 0.690104 (Simulation time: 2 hr 22 min 13 sec) 
Heartbeat CPU 0 instructions: 86000001 cycles: 115328464 heartbeat IPC: 0.673041 cumulative IPC: 0.689874 (Simulation time: 2 hr 23 min 41 sec) 
Heartbeat CPU 0 instructions: 87000001 cycles: 116814473 heartbeat IPC: 0.672943 cumulative IPC: 0.689649 (Simulation time: 2 hr 25 min 9 sec) 
Heartbeat CPU 0 instructions: 88000000 cycles: 118321338 heartbeat IPC: 0.663629 cumulative IPC: 0.689302 (Simulation time: 2 hr 26 min 31 sec) 
Heartbeat CPU 0 instructions: 89000003 cycles: 119821324 heartbeat IPC: 0.666675 cumulative IPC: 0.689006 (Simulation time: 2 hr 27 min 50 sec) 
Heartbeat CPU 0 instructions: 90000003 cycles: 121325792 heartbeat IPC: 0.664687 cumulative IPC: 0.688691 (Simulation time: 2 hr 29 min 3 sec) 
Heartbeat CPU 0 instructions: 91000001 cycles: 122835359 heartbeat IPC: 0.66244 cumulative IPC: 0.688355 (Simulation time: 2 hr 30 min 13 sec) 
Heartbeat CPU 0 instructions: 92000000 cycles: 124345913 heartbeat IPC: 0.662008 cumulative IPC: 0.688021 (Simulation time: 2 hr 31 min 14 sec) 
Heartbeat CPU 0 instructions: 93000001 cycles: 125863239 heartbeat IPC: 0.659055 cumulative IPC: 0.687657 (Simulation time: 2 hr 32 min 18 sec) 
Heartbeat CPU 0 instructions: 94000001 cycles: 127375449 heartbeat IPC: 0.661284 cumulative IPC: 0.68733 (Simulation time: 2 hr 33 min 18 sec) 
Heartbeat CPU 0 instructions: 95000001 cycles: 128885559 heartbeat IPC: 0.662203 cumulative IPC: 0.687024 (Simulation time: 2 hr 34 min 14 sec) 
Heartbeat CPU 0 instructions: 96000000 cycles: 130398259 heartbeat IPC: 0.661069 cumulative IPC: 0.68671 (Simulation time: 2 hr 35 min 15 sec) 
Heartbeat CPU 0 instructions: 97000000 cycles: 131914281 heartbeat IPC: 0.659621 cumulative IPC: 0.686386 (Simulation time: 2 hr 36 min 14 sec) 
Heartbeat CPU 0 instructions: 98000000 cycles: 133427884 heartbeat IPC: 0.660675 cumulative IPC: 0.686083 (Simulation time: 2 hr 37 min 12 sec) 
Heartbeat CPU 0 instructions: 99000000 cycles: 134939223 heartbeat IPC: 0.661665 cumulative IPC: 0.685798 (Simulation time: 2 hr 38 min 1 sec) 
Heartbeat CPU 0 instructions: 100000000 cycles: 136454694 heartbeat IPC: 0.659861 cumulative IPC: 0.685499 (Simulation time: 2 hr 38 min 53 sec) 
Heartbeat CPU 0 instructions: 101000002 cycles: 137972046 heartbeat IPC: 0.659044 cumulative IPC: 0.685197 (Simulation time: 2 hr 39 min 52 sec) 
Heartbeat CPU 0 instructions: 102000002 cycles: 139485488 heartbeat IPC: 0.660746 cumulative IPC: 0.684921 (Simulation time: 2 hr 40 min 46 sec) 
Heartbeat CPU 0 instructions: 103000002 cycles: 140999413 heartbeat IPC: 0.660535 cumulative IPC: 0.684649 (Simulation time: 2 hr 41 min 39 sec) 
Heartbeat CPU 0 instructions: 104000000 cycles: 142514987 heartbeat IPC: 0.659815 cumulative IPC: 0.684375 (Simulation time: 2 hr 42 min 21 sec) 
Heartbeat CPU 0 instructions: 105000001 cycles: 144029481 heartbeat IPC: 0.660287 cumulative IPC: 0.684113 (Simulation time: 2 hr 43 min 6 sec) 
Heartbeat CPU 0 instructions: 106000001 cycles: 145545362 heartbeat IPC: 0.659682 cumulative IPC: 0.683849 (Simulation time: 2 hr 43 min 50 sec) 
Heartbeat CPU 0 instructions: 107000000 cycles: 147056692 heartbeat IPC: 0.661668 cumulative IPC: 0.683613 (Simulation time: 2 hr 44 min 34 sec) 
Heartbeat CPU 0 instructions: 108000000 cycles: 148570928 heartbeat IPC: 0.660399 cumulative IPC: 0.683367 (Simulation time: 2 hr 45 min 16 sec) 
Heartbeat CPU 0 instructions: 109000000 cycles: 150080185 heartbeat IPC: 0.662578 cumulative IPC: 0.683151 (Simulation time: 2 hr 45 min 52 sec) 
Heartbeat CPU 0 instructions: 110000001 cycles: 151580030 heartbeat IPC: 0.666736 cumulative IPC: 0.682983 (Simulation time: 2 hr 46 min 25 sec) 
Finished CPU 0 instructions: 100000000 cycles: 146416577 cummulative IPC: 0.682983 (Simulation time: 2 hr 46 min 25 sec) 

ChampSim completed all CPUs

Region of Interest Statistics

CPU 0 cummulative IPC: 0.682983 instructions: 100000000 cycles: 146416577
LLC TOTAL     ACCESS:    1088939  HIT:     135606  MISS:     953333
LLC LOAD      ACCESS:      57824  HIT:       8909  MISS:      48915
LLC RFO       ACCESS:     201525  HIT:       1440  MISS:     200085
LLC PREFETCH  ACCESS:     601077  HIT:      44062  MISS:     557015
LLC WRITEBACK ACCESS:     228513  HIT:      81195  MISS:     147318
Insertion Distribution: 
	LOAD 5750 0 0 0 0 0 0 0 0 0 0 0 0 0 0 0 0 0 0 0 0 0 0 0 0 0 0 0 0 0 25368 18083 
	RFO 0 0 0 0 0 0 0 0 0 0 0 0 0 0 0 0 0 0 0 0 0 0 0 0 0 0 0 0 0 0 44239 160022 
	PREF 0 0 0 0 0 0 0 0 0 0 0 0 0 0 0 0 0 0 0 0 0 0 0 0 0 0 0 0 0 0 68880 498679 
	WRITEBACK 0 0 0 0 0 0 0 0 0 0 0 0 0 0 0 0 0 0 0 0 0 0 0 0 0 0 0 0 0 0 0 147318 
Total Prefetch Downgrades: 508
