
*** ChampSim Multicore Out-of-Order Simulator ***

Warmup Instructions: 10000000
Simulation Instructions: 100000000
Configuration: 2
Number of CPUs: 1
LLC sets: 2048
LLC ways: 16
Off-chip DRAM Channels: 1 Width: 64-bit Data Rate: 1600 MT/s

CPU 0 runs /datasets/cs240c-wi22-a00-public/data/Assignment2-gz/wrf_1228B.trace.gz
CPU 0 L1D next line prefetcher
CPU 0 L2C IP-based stride prefetcher
Initialize SRRIP state
Heartbeat CPU 0 instructions: 1000003 cycles: 591063 heartbeat IPC: 1.69187 cumulative IPC: 1.69187 (Simulation time: 0 hr 1 min 44 sec) 
Heartbeat CPU 0 instructions: 2000003 cycles: 1111219 heartbeat IPC: 1.9225 cumulative IPC: 1.79983 (Simulation time: 0 hr 3 min 19 sec) 
Heartbeat CPU 0 instructions: 3000000 cycles: 1729185 heartbeat IPC: 1.61821 cumulative IPC: 1.73492 (Simulation time: 0 hr 5 min 4 sec) 
Heartbeat CPU 0 instructions: 4000000 cycles: 2349837 heartbeat IPC: 1.61121 cumulative IPC: 1.70225 (Simulation time: 0 hr 6 min 45 sec) 
Heartbeat CPU 0 instructions: 5000000 cycles: 3052201 heartbeat IPC: 1.42376 cumulative IPC: 1.63816 (Simulation time: 0 hr 8 min 26 sec) 
Heartbeat CPU 0 instructions: 6000000 cycles: 3612288 heartbeat IPC: 1.78544 cumulative IPC: 1.661 (Simulation time: 0 hr 10 min 3 sec) 
Heartbeat CPU 0 instructions: 7000001 cycles: 4165046 heartbeat IPC: 1.80911 cumulative IPC: 1.68065 (Simulation time: 0 hr 11 min 40 sec) 
Heartbeat CPU 0 instructions: 8000000 cycles: 4716412 heartbeat IPC: 1.81368 cumulative IPC: 1.6962 (Simulation time: 0 hr 13 min 15 sec) 
Heartbeat CPU 0 instructions: 9000002 cycles: 5266596 heartbeat IPC: 1.81758 cumulative IPC: 1.70888 (Simulation time: 0 hr 14 min 52 sec) 
Heartbeat CPU 0 instructions: 10000001 cycles: 5819494 heartbeat IPC: 1.80865 cumulative IPC: 1.71836 (Simulation time: 0 hr 16 min 24 sec) 

Warmup complete CPU 0 instructions: 10000001 cycles: 5819494 (Simulation time: 0 hr 16 min 24 sec) 

Heartbeat CPU 0 instructions: 11000003 cycles: 6773951 heartbeat IPC: 1.04772 cumulative IPC: 1.04772 (Simulation time: 0 hr 18 min 1 sec) 
Heartbeat CPU 0 instructions: 12000000 cycles: 7761263 heartbeat IPC: 1.01285 cumulative IPC: 1.02999 (Simulation time: 0 hr 19 min 30 sec) 
Heartbeat CPU 0 instructions: 13000003 cycles: 8744686 heartbeat IPC: 1.01686 cumulative IPC: 1.02557 (Simulation time: 0 hr 20 min 58 sec) 
Heartbeat CPU 0 instructions: 14000002 cycles: 9691690 heartbeat IPC: 1.05596 cumulative IPC: 1.03301 (Simulation time: 0 hr 22 min 20 sec) 
Heartbeat CPU 0 instructions: 15000001 cycles: 10540226 heartbeat IPC: 1.1785 cumulative IPC: 1.05916 (Simulation time: 0 hr 23 min 38 sec) 
Heartbeat CPU 0 instructions: 16000000 cycles: 11382553 heartbeat IPC: 1.18719 cumulative IPC: 1.07854 (Simulation time: 0 hr 25 min 0 sec) 
Heartbeat CPU 0 instructions: 17000002 cycles: 12279270 heartbeat IPC: 1.11518 cumulative IPC: 1.08363 (Simulation time: 0 hr 26 min 18 sec) 
Heartbeat CPU 0 instructions: 18000003 cycles: 13179760 heartbeat IPC: 1.11051 cumulative IPC: 1.08692 (Simulation time: 0 hr 27 min 38 sec) 
Heartbeat CPU 0 instructions: 19000000 cycles: 14067665 heartbeat IPC: 1.12624 cumulative IPC: 1.09115 (Simulation time: 0 hr 28 min 58 sec) 
Heartbeat CPU 0 instructions: 20000000 cycles: 14968023 heartbeat IPC: 1.11067 cumulative IPC: 1.09307 (Simulation time: 0 hr 30 min 19 sec) 
Heartbeat CPU 0 instructions: 21000000 cycles: 15882329 heartbeat IPC: 1.09373 cumulative IPC: 1.09313 (Simulation time: 0 hr 31 min 47 sec) 
Heartbeat CPU 0 instructions: 22000000 cycles: 16812589 heartbeat IPC: 1.07497 cumulative IPC: 1.09159 (Simulation time: 0 hr 33 min 6 sec) 
Heartbeat CPU 0 instructions: 23000003 cycles: 17731930 heartbeat IPC: 1.08774 cumulative IPC: 1.0913 (Simulation time: 0 hr 34 min 35 sec) 
Heartbeat CPU 0 instructions: 24000000 cycles: 18660223 heartbeat IPC: 1.07724 cumulative IPC: 1.09028 (Simulation time: 0 hr 36 min 1 sec) 
Heartbeat CPU 0 instructions: 25000000 cycles: 19650675 heartbeat IPC: 1.00964 cumulative IPC: 1.08451 (Simulation time: 0 hr 37 min 34 sec) 
Heartbeat CPU 0 instructions: 26000003 cycles: 20670582 heartbeat IPC: 0.980484 cumulative IPC: 1.07736 (Simulation time: 0 hr 39 min 5 sec) 
Heartbeat CPU 0 instructions: 27000003 cycles: 21716190 heartbeat IPC: 0.956381 cumulative IPC: 1.0694 (Simulation time: 0 hr 40 min 45 sec) 
Heartbeat CPU 0 instructions: 28000000 cycles: 22789425 heartbeat IPC: 0.93176 cumulative IPC: 1.0607 (Simulation time: 0 hr 42 min 19 sec) 
Heartbeat CPU 0 instructions: 29000003 cycles: 24239943 heartbeat IPC: 0.689411 cumulative IPC: 1.03146 (Simulation time: 0 hr 44 min 3 sec) 
Heartbeat CPU 0 instructions: 30000000 cycles: 25771719 heartbeat IPC: 0.652835 cumulative IPC: 1.00239 (Simulation time: 0 hr 45 min 53 sec) 
Heartbeat CPU 0 instructions: 31000003 cycles: 27496849 heartbeat IPC: 0.579668 cumulative IPC: 0.968753 (Simulation time: 0 hr 47 min 36 sec) 
Heartbeat CPU 0 instructions: 32000000 cycles: 29270837 heartbeat IPC: 0.5637 cumulative IPC: 0.938113 (Simulation time: 0 hr 49 min 22 sec) 
Heartbeat CPU 0 instructions: 33000001 cycles: 30639716 heartbeat IPC: 0.730525 cumulative IPC: 0.926664 (Simulation time: 0 hr 51 min 9 sec) 
Heartbeat CPU 0 instructions: 34000002 cycles: 32077642 heartbeat IPC: 0.695447 cumulative IPC: 0.914002 (Simulation time: 0 hr 52 min 57 sec) 
Heartbeat CPU 0 instructions: 35000001 cycles: 33853655 heartbeat IPC: 0.563058 cumulative IPC: 0.891769 (Simulation time: 0 hr 54 min 51 sec) 
Heartbeat CPU 0 instructions: 36000000 cycles: 34796302 heartbeat IPC: 1.06084 cumulative IPC: 0.897269 (Simulation time: 0 hr 56 min 23 sec) 
Heartbeat CPU 0 instructions: 37000001 cycles: 35728146 heartbeat IPC: 1.07314 cumulative IPC: 0.902749 (Simulation time: 0 hr 57 min 54 sec) 
Heartbeat CPU 0 instructions: 38000003 cycles: 36653996 heartbeat IPC: 1.08009 cumulative IPC: 0.908074 (Simulation time: 0 hr 59 min 26 sec) 
Heartbeat CPU 0 instructions: 39000002 cycles: 37611658 heartbeat IPC: 1.04421 cumulative IPC: 0.912174 (Simulation time: 1 hr 0 min 59 sec) 
Heartbeat CPU 0 instructions: 40000000 cycles: 38556898 heartbeat IPC: 1.05793 cumulative IPC: 0.916383 (Simulation time: 1 hr 2 min 32 sec) 
Heartbeat CPU 0 instructions: 41000000 cycles: 39519130 heartbeat IPC: 1.03925 cumulative IPC: 0.919891 (Simulation time: 1 hr 4 min 2 sec) 
Heartbeat CPU 0 instructions: 42000002 cycles: 40476909 heartbeat IPC: 1.04408 cumulative IPC: 0.923323 (Simulation time: 1 hr 5 min 36 sec) 
Heartbeat CPU 0 instructions: 43000002 cycles: 41462169 heartbeat IPC: 1.01496 cumulative IPC: 0.925856 (Simulation time: 1 hr 7 min 6 sec) 
Heartbeat CPU 0 instructions: 44000000 cycles: 42341922 heartbeat IPC: 1.13668 cumulative IPC: 0.930935 (Simulation time: 1 hr 8 min 29 sec) 
Heartbeat CPU 0 instructions: 45000000 cycles: 43190717 heartbeat IPC: 1.17814 cumulative IPC: 0.936549 (Simulation time: 1 hr 9 min 54 sec) 
Heartbeat CPU 0 instructions: 46000001 cycles: 44060199 heartbeat IPC: 1.15011 cumulative IPC: 0.941405 (Simulation time: 1 hr 11 min 17 sec) 
Heartbeat CPU 0 instructions: 47000001 cycles: 44941564 heartbeat IPC: 1.1346 cumulative IPC: 0.945758 (Simulation time: 1 hr 12 min 40 sec) 
Heartbeat CPU 0 instructions: 48000000 cycles: 45818991 heartbeat IPC: 1.13969 cumulative IPC: 0.950012 (Simulation time: 1 hr 14 min 5 sec) 
Heartbeat CPU 0 instructions: 49000001 cycles: 46712135 heartbeat IPC: 1.11964 cumulative IPC: 0.953717 (Simulation time: 1 hr 15 min 23 sec) 
Heartbeat CPU 0 instructions: 50000002 cycles: 47619750 heartbeat IPC: 1.10179 cumulative IPC: 0.956932 (Simulation time: 1 hr 16 min 43 sec) 
Heartbeat CPU 0 instructions: 51000001 cycles: 48531002 heartbeat IPC: 1.09739 cumulative IPC: 0.959929 (Simulation time: 1 hr 18 min 2 sec) 
Heartbeat CPU 0 instructions: 52000000 cycles: 49488263 heartbeat IPC: 1.04465 cumulative IPC: 0.961786 (Simulation time: 1 hr 19 min 27 sec) 
Heartbeat CPU 0 instructions: 53000002 cycles: 50476264 heartbeat IPC: 1.01215 cumulative IPC: 0.9629 (Simulation time: 1 hr 20 min 56 sec) 
Heartbeat CPU 0 instructions: 54000001 cycles: 51462060 heartbeat IPC: 1.01441 cumulative IPC: 0.964012 (Simulation time: 1 hr 22 min 27 sec) 
Heartbeat CPU 0 instructions: 55000001 cycles: 52446310 heartbeat IPC: 1.016 cumulative IPC: 0.96511 (Simulation time: 1 hr 23 min 58 sec) 
Heartbeat CPU 0 instructions: 56000000 cycles: 53452254 heartbeat IPC: 0.99409 cumulative IPC: 0.965722 (Simulation time: 1 hr 25 min 30 sec) 
Heartbeat CPU 0 instructions: 57000001 cycles: 54465886 heartbeat IPC: 0.986552 cumulative IPC: 0.966156 (Simulation time: 1 hr 26 min 57 sec) 
Heartbeat CPU 0 instructions: 58000000 cycles: 55500083 heartbeat IPC: 0.966933 cumulative IPC: 0.966172 (Simulation time: 1 hr 28 min 21 sec) 
Heartbeat CPU 0 instructions: 59000001 cycles: 57305477 heartbeat IPC: 0.553896 cumulative IPC: 0.951715 (Simulation time: 1 hr 30 min 11 sec) 
Heartbeat CPU 0 instructions: 60000000 cycles: 58896028 heartbeat IPC: 0.628712 cumulative IPC: 0.942036 (Simulation time: 1 hr 31 min 54 sec) 
Heartbeat CPU 0 instructions: 61000000 cycles: 60618455 heartbeat IPC: 0.580576 cumulative IPC: 0.930675 (Simulation time: 1 hr 33 min 38 sec) 
Heartbeat CPU 0 instructions: 62000000 cycles: 62255646 heartbeat IPC: 0.610802 cumulative IPC: 0.921395 (Simulation time: 1 hr 35 min 22 sec) 
Heartbeat CPU 0 instructions: 63000001 cycles: 63645669 heartbeat IPC: 0.719413 cumulative IPC: 0.91654 (Simulation time: 1 hr 37 min 7 sec) 
Heartbeat CPU 0 instructions: 64000000 cycles: 65166720 heartbeat IPC: 0.657439 cumulative IPC: 0.909899 (Simulation time: 1 hr 38 min 56 sec) 
Heartbeat CPU 0 instructions: 65000003 cycles: 66661547 heartbeat IPC: 0.668976 cumulative IPC: 0.90398 (Simulation time: 1 hr 40 min 48 sec) 
Heartbeat CPU 0 instructions: 66000000 cycles: 68157298 heartbeat IPC: 0.668558 cumulative IPC: 0.898331 (Simulation time: 1 hr 42 min 36 sec) 
Heartbeat CPU 0 instructions: 67000000 cycles: 69651818 heartbeat IPC: 0.669111 cumulative IPC: 0.892964 (Simulation time: 1 hr 44 min 25 sec) 
Heartbeat CPU 0 instructions: 68000000 cycles: 71146272 heartbeat IPC: 0.669141 cumulative IPC: 0.887844 (Simulation time: 1 hr 46 min 12 sec) 
Heartbeat CPU 0 instructions: 69000000 cycles: 72653515 heartbeat IPC: 0.663463 cumulative IPC: 0.882784 (Simulation time: 1 hr 48 min 3 sec) 
Heartbeat CPU 0 instructions: 70000001 cycles: 74150093 heartbeat IPC: 0.668192 cumulative IPC: 0.878084 (Simulation time: 1 hr 49 min 50 sec) 
Heartbeat CPU 0 instructions: 71000001 cycles: 75644160 heartbeat IPC: 0.669314 cumulative IPC: 0.873617 (Simulation time: 1 hr 51 min 38 sec) 
Heartbeat CPU 0 instructions: 72000000 cycles: 77127256 heartbeat IPC: 0.674264 cumulative IPC: 0.869471 (Simulation time: 1 hr 53 min 26 sec) 
Heartbeat CPU 0 instructions: 73000003 cycles: 78614963 heartbeat IPC: 0.672177 cumulative IPC: 0.865439 (Simulation time: 1 hr 55 min 23 sec) 
Heartbeat CPU 0 instructions: 74000000 cycles: 80112490 heartbeat IPC: 0.667766 cumulative IPC: 0.861454 (Simulation time: 1 hr 57 min 31 sec) 
Heartbeat CPU 0 instructions: 75000001 cycles: 81606464 heartbeat IPC: 0.669356 cumulative IPC: 0.857667 (Simulation time: 1 hr 59 min 24 sec) 
Heartbeat CPU 0 instructions: 76000000 cycles: 83102899 heartbeat IPC: 0.668254 cumulative IPC: 0.854 (Simulation time: 2 hr 1 min 13 sec) 
Heartbeat CPU 0 instructions: 77000003 cycles: 84596820 heartbeat IPC: 0.669381 cumulative IPC: 0.850499 (Simulation time: 2 hr 3 min 5 sec) 
Heartbeat CPU 0 instructions: 78000001 cycles: 86091510 heartbeat IPC: 0.669034 cumulative IPC: 0.84712 (Simulation time: 2 hr 4 min 55 sec) 
Heartbeat CPU 0 instructions: 79000000 cycles: 87587941 heartbeat IPC: 0.668256 cumulative IPC: 0.843846 (Simulation time: 2 hr 6 min 44 sec) 
Heartbeat CPU 0 instructions: 80000000 cycles: 89078323 heartbeat IPC: 0.670969 cumulative IPC: 0.840752 (Simulation time: 2 hr 8 min 23 sec) 
Heartbeat CPU 0 instructions: 81000001 cycles: 90562256 heartbeat IPC: 0.673886 cumulative IPC: 0.83783 (Simulation time: 2 hr 10 min 14 sec) 
Heartbeat CPU 0 instructions: 82000000 cycles: 92045218 heartbeat IPC: 0.674325 cumulative IPC: 0.835018 (Simulation time: 2 hr 11 min 54 sec) 
Heartbeat CPU 0 instructions: 83000000 cycles: 93528696 heartbeat IPC: 0.674092 cumulative IPC: 0.832296 (Simulation time: 2 hr 13 min 37 sec) 
Heartbeat CPU 0 instructions: 84000000 cycles: 95023590 heartbeat IPC: 0.668944 cumulative IPC: 0.829558 (Simulation time: 2 hr 15 min 18 sec) 
Heartbeat CPU 0 instructions: 85000000 cycles: 96518473 heartbeat IPC: 0.668949 cumulative IPC: 0.826911 (Simulation time: 2 hr 16 min 59 sec) 
Heartbeat CPU 0 instructions: 86000000 cycles: 98012268 heartbeat IPC: 0.669436 cumulative IPC: 0.82436 (Simulation time: 2 hr 18 min 36 sec) 
Heartbeat CPU 0 instructions: 87000000 cycles: 99507123 heartbeat IPC: 0.668961 cumulative IPC: 0.82188 (Simulation time: 2 hr 20 min 16 sec) 
Heartbeat CPU 0 instructions: 88000000 cycles: 101002339 heartbeat IPC: 0.6688 cumulative IPC: 0.819475 (Simulation time: 2 hr 21 min 54 sec) 
Heartbeat CPU 0 instructions: 89000002 cycles: 102497968 heartbeat IPC: 0.668616 cumulative IPC: 0.817142 (Simulation time: 2 hr 23 min 30 sec) 
Heartbeat CPU 0 instructions: 90000000 cycles: 103982498 heartbeat IPC: 0.673613 cumulative IPC: 0.814971 (Simulation time: 2 hr 25 min 2 sec) 
Heartbeat CPU 0 instructions: 91000000 cycles: 105466117 heartbeat IPC: 0.674028 cumulative IPC: 0.812872 (Simulation time: 2 hr 26 min 23 sec) 
Heartbeat CPU 0 instructions: 92000000 cycles: 106949958 heartbeat IPC: 0.673927 cumulative IPC: 0.810834 (Simulation time: 2 hr 27 min 41 sec) 
Heartbeat CPU 0 instructions: 93000000 cycles: 108439700 heartbeat IPC: 0.671257 cumulative IPC: 0.808808 (Simulation time: 2 hr 28 min 53 sec) 
Heartbeat CPU 0 instructions: 94000003 cycles: 109933552 heartbeat IPC: 0.669412 cumulative IPC: 0.806808 (Simulation time: 2 hr 30 min 2 sec) 
Heartbeat CPU 0 instructions: 95000000 cycles: 111429355 heartbeat IPC: 0.668535 cumulative IPC: 0.804849 (Simulation time: 2 hr 31 min 5 sec) 
Heartbeat CPU 0 instructions: 96000000 cycles: 112923304 heartbeat IPC: 0.669367 cumulative IPC: 0.802959 (Simulation time: 2 hr 32 min 6 sec) 
Heartbeat CPU 0 instructions: 97000001 cycles: 114418857 heartbeat IPC: 0.66865 cumulative IPC: 0.80111 (Simulation time: 2 hr 33 min 14 sec) 
Heartbeat CPU 0 instructions: 98000003 cycles: 115914214 heartbeat IPC: 0.668738 cumulative IPC: 0.799312 (Simulation time: 2 hr 34 min 14 sec) 
Heartbeat CPU 0 instructions: 99000000 cycles: 117403316 heartbeat IPC: 0.671544 cumulative IPC: 0.797607 (Simulation time: 2 hr 35 min 16 sec) 
Heartbeat CPU 0 instructions: 100000000 cycles: 118886708 heartbeat IPC: 0.674131 cumulative IPC: 0.795987 (Simulation time: 2 hr 36 min 13 sec) 
Heartbeat CPU 0 instructions: 101000000 cycles: 120369918 heartbeat IPC: 0.674213 cumulative IPC: 0.79441 (Simulation time: 2 hr 37 min 9 sec) 
Heartbeat CPU 0 instructions: 102000003 cycles: 121853503 heartbeat IPC: 0.674045 cumulative IPC: 0.792871 (Simulation time: 2 hr 38 min 3 sec) 
Heartbeat CPU 0 instructions: 103000003 cycles: 123349764 heartbeat IPC: 0.668333 cumulative IPC: 0.791286 (Simulation time: 2 hr 38 min 58 sec) 
Heartbeat CPU 0 instructions: 104000000 cycles: 124844301 heartbeat IPC: 0.669102 cumulative IPC: 0.789751 (Simulation time: 2 hr 39 min 56 sec) 
Heartbeat CPU 0 instructions: 105000000 cycles: 126339110 heartbeat IPC: 0.668982 cumulative IPC: 0.788253 (Simulation time: 2 hr 40 min 49 sec) 
Heartbeat CPU 0 instructions: 106000000 cycles: 127834170 heartbeat IPC: 0.668869 cumulative IPC: 0.786791 (Simulation time: 2 hr 41 min 36 sec) 
Heartbeat CPU 0 instructions: 107000000 cycles: 129330009 heartbeat IPC: 0.668521 cumulative IPC: 0.785358 (Simulation time: 2 hr 42 min 23 sec) 
Heartbeat CPU 0 instructions: 108000000 cycles: 130825588 heartbeat IPC: 0.668637 cumulative IPC: 0.783962 (Simulation time: 2 hr 43 min 6 sec) 
Heartbeat CPU 0 instructions: 109000003 cycles: 132308450 heartbeat IPC: 0.674374 cumulative IPC: 0.782677 (Simulation time: 2 hr 43 min 47 sec) 
Heartbeat CPU 0 instructions: 110000001 cycles: 133791649 heartbeat IPC: 0.674217 cumulative IPC: 0.78142 (Simulation time: 2 hr 44 min 29 sec) 
Finished CPU 0 instructions: 100000000 cycles: 127972155 cummulative IPC: 0.78142 (Simulation time: 2 hr 44 min 29 sec) 

ChampSim completed all CPUs

Region of Interest Statistics

CPU 0 cummulative IPC: 0.78142 instructions: 100000000 cycles: 127972155
LLC TOTAL     ACCESS:    1495356  HIT:     452185  MISS:    1043171
LLC LOAD      ACCESS:      89203  HIT:      23429  MISS:      65774
LLC RFO       ACCESS:     219210  HIT:      45016  MISS:     174194
LLC PREFETCH  ACCESS:     750800  HIT:     149811  MISS:     600989
LLC WRITEBACK ACCESS:     436143  HIT:     233929  MISS:     202214
Insertion Distribution: 
	LOAD 4217 0 0 0 0 0 0 0 0 0 0 0 0 0 0 0 0 0 0 0 0 0 0 0 0 0 0 0 0 0 12880 53466 
	RFO 32148 0 0 0 0 0 0 0 0 0 0 0 0 0 0 0 0 0 0 0 0 0 0 0 0 0 0 0 0 0 61716 155433 
	PREF 0 4252 0 0 0 0 0 0 0 0 0 0 0 0 0 0 0 0 0 0 0 0 0 0 0 0 0 0 0 0 113159 648058 
	WRITEBACK 0 0 0 0 0 0 0 0 0 0 0 0 0 0 0 0 0 0 0 0 0 0 0 0 0 0 0 0 0 0 0 256488 
Total Prefetch Downgrades: 4002
