
*** ChampSim Multicore Out-of-Order Simulator ***

Warmup Instructions: 10000000
Simulation Instructions: 100000000
Configuration: 2
Number of CPUs: 1
LLC sets: 2048
LLC ways: 16
Off-chip DRAM Channels: 1 Width: 64-bit Data Rate: 1600 MT/s

CPU 0 runs /datasets/cs240c-wi22-a00-public/data/Assignment2-gz/calculix_2655B.trace.gz
CPU 0 L1D next line prefetcher
CPU 0 L2C IP-based stride prefetcher
Initialize SRRIP state
Heartbeat CPU 0 instructions: 1000003 cycles: 392383 heartbeat IPC: 2.54854 cumulative IPC: 2.54854 (Simulation time: 0 hr 1 min 4 sec) 
Heartbeat CPU 0 instructions: 2000001 cycles: 785148 heartbeat IPC: 2.54605 cumulative IPC: 2.54729 (Simulation time: 0 hr 2 min 8 sec) 
Heartbeat CPU 0 instructions: 3000002 cycles: 1177684 heartbeat IPC: 2.54754 cumulative IPC: 2.54737 (Simulation time: 0 hr 3 min 14 sec) 
Heartbeat CPU 0 instructions: 4000000 cycles: 1569447 heartbeat IPC: 2.55256 cumulative IPC: 2.54867 (Simulation time: 0 hr 4 min 19 sec) 
Heartbeat CPU 0 instructions: 5000003 cycles: 1961684 heartbeat IPC: 2.54949 cumulative IPC: 2.54883 (Simulation time: 0 hr 5 min 20 sec) 
Heartbeat CPU 0 instructions: 6000003 cycles: 2353797 heartbeat IPC: 2.55029 cumulative IPC: 2.54907 (Simulation time: 0 hr 6 min 21 sec) 
Heartbeat CPU 0 instructions: 7000002 cycles: 2745952 heartbeat IPC: 2.55001 cumulative IPC: 2.54921 (Simulation time: 0 hr 7 min 22 sec) 
Heartbeat CPU 0 instructions: 8000000 cycles: 3137922 heartbeat IPC: 2.55121 cumulative IPC: 2.54946 (Simulation time: 0 hr 8 min 22 sec) 
Heartbeat CPU 0 instructions: 9000001 cycles: 3530092 heartbeat IPC: 2.54992 cumulative IPC: 2.54951 (Simulation time: 0 hr 9 min 20 sec) 
Heartbeat CPU 0 instructions: 10000000 cycles: 3921567 heartbeat IPC: 2.55444 cumulative IPC: 2.55 (Simulation time: 0 hr 10 min 23 sec) 

Warmup complete CPU 0 instructions: 10000004 cycles: 3921568 (Simulation time: 0 hr 10 min 23 sec) 

Heartbeat CPU 0 instructions: 11000001 cycles: 4356973 heartbeat IPC: 2.29671 cumulative IPC: 2.29671 (Simulation time: 0 hr 11 min 31 sec) 
Heartbeat CPU 0 instructions: 12000000 cycles: 4786085 heartbeat IPC: 2.33039 cumulative IPC: 2.31343 (Simulation time: 0 hr 12 min 39 sec) 
Heartbeat CPU 0 instructions: 13000000 cycles: 5215418 heartbeat IPC: 2.32919 cumulative IPC: 2.31866 (Simulation time: 0 hr 13 min 46 sec) 
Heartbeat CPU 0 instructions: 14000002 cycles: 5643770 heartbeat IPC: 2.33453 cumulative IPC: 2.32261 (Simulation time: 0 hr 14 min 56 sec) 
Heartbeat CPU 0 instructions: 15000001 cycles: 6068383 heartbeat IPC: 2.35508 cumulative IPC: 2.32903 (Simulation time: 0 hr 16 min 10 sec) 
Heartbeat CPU 0 instructions: 16000000 cycles: 6657943 heartbeat IPC: 1.69618 cumulative IPC: 2.19268 (Simulation time: 0 hr 17 min 26 sec) 
Heartbeat CPU 0 instructions: 17000000 cycles: 7100426 heartbeat IPC: 2.25997 cumulative IPC: 2.20205 (Simulation time: 0 hr 18 min 34 sec) 
Heartbeat CPU 0 instructions: 18000000 cycles: 7541467 heartbeat IPC: 2.26736 cumulative IPC: 2.21001 (Simulation time: 0 hr 19 min 41 sec) 
Heartbeat CPU 0 instructions: 19000000 cycles: 7982480 heartbeat IPC: 2.26751 cumulative IPC: 2.21625 (Simulation time: 0 hr 20 min 48 sec) 
Heartbeat CPU 0 instructions: 20000000 cycles: 8423694 heartbeat IPC: 2.26647 cumulative IPC: 2.22117 (Simulation time: 0 hr 21 min 53 sec) 
Heartbeat CPU 0 instructions: 21000002 cycles: 8865225 heartbeat IPC: 2.26485 cumulative IPC: 2.22507 (Simulation time: 0 hr 23 min 0 sec) 
Heartbeat CPU 0 instructions: 22000001 cycles: 9522836 heartbeat IPC: 1.52065 cumulative IPC: 2.14237 (Simulation time: 0 hr 24 min 12 sec) 
Heartbeat CPU 0 instructions: 23000000 cycles: 10089934 heartbeat IPC: 1.76336 cumulative IPC: 2.10753 (Simulation time: 0 hr 25 min 21 sec) 
Heartbeat CPU 0 instructions: 24000000 cycles: 10644246 heartbeat IPC: 1.80404 cumulative IPC: 2.0825 (Simulation time: 0 hr 26 min 26 sec) 
Heartbeat CPU 0 instructions: 25000003 cycles: 11165327 heartbeat IPC: 1.91909 cumulative IPC: 2.07075 (Simulation time: 0 hr 27 min 34 sec) 
Heartbeat CPU 0 instructions: 26000003 cycles: 11666262 heartbeat IPC: 1.99627 cumulative IPC: 2.06593 (Simulation time: 0 hr 28 min 41 sec) 
Heartbeat CPU 0 instructions: 27000000 cycles: 12170325 heartbeat IPC: 1.98387 cumulative IPC: 2.06092 (Simulation time: 0 hr 29 min 49 sec) 
Heartbeat CPU 0 instructions: 28000000 cycles: 12789410 heartbeat IPC: 1.61529 cumulative IPC: 2.02981 (Simulation time: 0 hr 30 min 59 sec) 
Heartbeat CPU 0 instructions: 29000003 cycles: 13275701 heartbeat IPC: 2.05639 cumulative IPC: 2.03119 (Simulation time: 0 hr 32 min 9 sec) 
Heartbeat CPU 0 instructions: 30000003 cycles: 13754669 heartbeat IPC: 2.08782 cumulative IPC: 2.03395 (Simulation time: 0 hr 33 min 16 sec) 
Heartbeat CPU 0 instructions: 31000002 cycles: 14219033 heartbeat IPC: 2.15348 cumulative IPC: 2.03934 (Simulation time: 0 hr 34 min 25 sec) 
Heartbeat CPU 0 instructions: 32000000 cycles: 14671646 heartbeat IPC: 2.20939 cumulative IPC: 2.0465 (Simulation time: 0 hr 35 min 32 sec) 
Heartbeat CPU 0 instructions: 33000003 cycles: 15179789 heartbeat IPC: 1.96796 cumulative IPC: 2.04295 (Simulation time: 0 hr 36 min 39 sec) 
Heartbeat CPU 0 instructions: 34000002 cycles: 15806275 heartbeat IPC: 1.5962 cumulative IPC: 2.0194 (Simulation time: 0 hr 37 min 50 sec) 
Heartbeat CPU 0 instructions: 35000001 cycles: 16377374 heartbeat IPC: 1.75101 cumulative IPC: 2.0071 (Simulation time: 0 hr 38 min 57 sec) 
Heartbeat CPU 0 instructions: 36000000 cycles: 16915032 heartbeat IPC: 1.85992 cumulative IPC: 2.00101 (Simulation time: 0 hr 40 min 9 sec) 
Heartbeat CPU 0 instructions: 37000002 cycles: 17408667 heartbeat IPC: 2.02579 cumulative IPC: 2.00191 (Simulation time: 0 hr 41 min 15 sec) 
Heartbeat CPU 0 instructions: 38000002 cycles: 17859443 heartbeat IPC: 2.2184 cumulative IPC: 2.00891 (Simulation time: 0 hr 42 min 22 sec) 
Heartbeat CPU 0 instructions: 39000002 cycles: 18444827 heartbeat IPC: 1.70828 cumulative IPC: 1.9968 (Simulation time: 0 hr 43 min 35 sec) 
Heartbeat CPU 0 instructions: 40000000 cycles: 18936458 heartbeat IPC: 2.03404 cumulative IPC: 1.99802 (Simulation time: 0 hr 44 min 43 sec) 
Heartbeat CPU 0 instructions: 41000003 cycles: 19428510 heartbeat IPC: 2.03231 cumulative IPC: 1.9991 (Simulation time: 0 hr 45 min 52 sec) 
Heartbeat CPU 0 instructions: 42000001 cycles: 19951377 heartbeat IPC: 1.91253 cumulative IPC: 1.99628 (Simulation time: 0 hr 46 min 59 sec) 
Heartbeat CPU 0 instructions: 43000001 cycles: 20481690 heartbeat IPC: 1.88568 cumulative IPC: 1.99274 (Simulation time: 0 hr 48 min 5 sec) 
Heartbeat CPU 0 instructions: 44000000 cycles: 21200201 heartbeat IPC: 1.39177 cumulative IPC: 1.96775 (Simulation time: 0 hr 49 min 20 sec) 
Heartbeat CPU 0 instructions: 45000002 cycles: 21663377 heartbeat IPC: 2.15901 cumulative IPC: 1.97274 (Simulation time: 0 hr 50 min 30 sec) 
Heartbeat CPU 0 instructions: 46000003 cycles: 22180692 heartbeat IPC: 1.93306 cumulative IPC: 1.97162 (Simulation time: 0 hr 51 min 40 sec) 
Heartbeat CPU 0 instructions: 47000000 cycles: 22687170 heartbeat IPC: 1.97441 cumulative IPC: 1.97169 (Simulation time: 0 hr 52 min 48 sec) 
Heartbeat CPU 0 instructions: 48000000 cycles: 23227328 heartbeat IPC: 1.85131 cumulative IPC: 1.96832 (Simulation time: 0 hr 53 min 57 sec) 
Heartbeat CPU 0 instructions: 49000000 cycles: 23671917 heartbeat IPC: 2.24927 cumulative IPC: 1.97465 (Simulation time: 0 hr 55 min 5 sec) 
Heartbeat CPU 0 instructions: 50000002 cycles: 24154982 heartbeat IPC: 2.07012 cumulative IPC: 1.97693 (Simulation time: 0 hr 56 min 16 sec) 
Heartbeat CPU 0 instructions: 51000001 cycles: 24635370 heartbeat IPC: 2.08165 cumulative IPC: 1.97936 (Simulation time: 0 hr 57 min 27 sec) 
Heartbeat CPU 0 instructions: 52000000 cycles: 25070191 heartbeat IPC: 2.29979 cumulative IPC: 1.98594 (Simulation time: 0 hr 58 min 35 sec) 
Heartbeat CPU 0 instructions: 53000002 cycles: 25601406 heartbeat IPC: 1.88248 cumulative IPC: 1.98341 (Simulation time: 0 hr 59 min 45 sec) 
Heartbeat CPU 0 instructions: 54000002 cycles: 26397838 heartbeat IPC: 1.2556 cumulative IPC: 1.95762 (Simulation time: 1 hr 1 min 7 sec) 
Heartbeat CPU 0 instructions: 55000003 cycles: 26934735 heartbeat IPC: 1.86256 cumulative IPC: 1.9554 (Simulation time: 1 hr 2 min 18 sec) 
Heartbeat CPU 0 instructions: 56000000 cycles: 27414133 heartbeat IPC: 2.08594 cumulative IPC: 1.95807 (Simulation time: 1 hr 3 min 27 sec) 
Heartbeat CPU 0 instructions: 57000000 cycles: 27950137 heartbeat IPC: 1.86566 cumulative IPC: 1.956 (Simulation time: 1 hr 4 min 39 sec) 
Heartbeat CPU 0 instructions: 58000003 cycles: 28401193 heartbeat IPC: 2.21703 cumulative IPC: 1.96081 (Simulation time: 1 hr 5 min 48 sec) 
Heartbeat CPU 0 instructions: 59000001 cycles: 28932591 heartbeat IPC: 1.88182 cumulative IPC: 1.95914 (Simulation time: 1 hr 7 min 0 sec) 
Heartbeat CPU 0 instructions: 60000000 cycles: 29414798 heartbeat IPC: 2.0738 cumulative IPC: 1.9613 (Simulation time: 1 hr 8 min 9 sec) 
Heartbeat CPU 0 instructions: 61000002 cycles: 29924446 heartbeat IPC: 1.96214 cumulative IPC: 1.96132 (Simulation time: 1 hr 9 min 21 sec) 
Heartbeat CPU 0 instructions: 62000003 cycles: 30443835 heartbeat IPC: 1.92534 cumulative IPC: 1.96062 (Simulation time: 1 hr 10 min 36 sec) 
Heartbeat CPU 0 instructions: 63000003 cycles: 31123916 heartbeat IPC: 1.47041 cumulative IPC: 1.94836 (Simulation time: 1 hr 11 min 48 sec) 
Heartbeat CPU 0 instructions: 64000000 cycles: 31614021 heartbeat IPC: 2.04037 cumulative IPC: 1.94999 (Simulation time: 1 hr 12 min 58 sec) 
Heartbeat CPU 0 instructions: 65000001 cycles: 32142558 heartbeat IPC: 1.89202 cumulative IPC: 1.9489 (Simulation time: 1 hr 14 min 9 sec) 
Heartbeat CPU 0 instructions: 66000001 cycles: 32799546 heartbeat IPC: 1.5221 cumulative IPC: 1.93919 (Simulation time: 1 hr 15 min 26 sec) 
Heartbeat CPU 0 instructions: 67000003 cycles: 33378298 heartbeat IPC: 1.72786 cumulative IPC: 1.93504 (Simulation time: 1 hr 16 min 37 sec) 
Heartbeat CPU 0 instructions: 68000000 cycles: 33944947 heartbeat IPC: 1.76476 cumulative IPC: 1.93183 (Simulation time: 1 hr 17 min 51 sec) 
Heartbeat CPU 0 instructions: 69000001 cycles: 34504972 heartbeat IPC: 1.78564 cumulative IPC: 1.92915 (Simulation time: 1 hr 18 min 58 sec) 
Heartbeat CPU 0 instructions: 70000002 cycles: 35071834 heartbeat IPC: 1.7641 cumulative IPC: 1.92615 (Simulation time: 1 hr 20 min 10 sec) 
Heartbeat CPU 0 instructions: 71000003 cycles: 35633225 heartbeat IPC: 1.78129 cumulative IPC: 1.92358 (Simulation time: 1 hr 21 min 21 sec) 
Heartbeat CPU 0 instructions: 72000000 cycles: 36196081 heartbeat IPC: 1.77665 cumulative IPC: 1.92102 (Simulation time: 1 hr 22 min 28 sec) 
Heartbeat CPU 0 instructions: 73000000 cycles: 36754883 heartbeat IPC: 1.78954 cumulative IPC: 1.91878 (Simulation time: 1 hr 23 min 37 sec) 
Heartbeat CPU 0 instructions: 74000000 cycles: 37303512 heartbeat IPC: 1.82273 cumulative IPC: 1.9172 (Simulation time: 1 hr 24 min 46 sec) 
Heartbeat CPU 0 instructions: 75000000 cycles: 37927047 heartbeat IPC: 1.60376 cumulative IPC: 1.91146 (Simulation time: 1 hr 26 min 1 sec) 
Heartbeat CPU 0 instructions: 76000000 cycles: 38523856 heartbeat IPC: 1.67558 cumulative IPC: 1.90739 (Simulation time: 1 hr 27 min 9 sec) 
Heartbeat CPU 0 instructions: 77000003 cycles: 39110391 heartbeat IPC: 1.70493 cumulative IPC: 1.90401 (Simulation time: 1 hr 28 min 17 sec) 
Heartbeat CPU 0 instructions: 78000002 cycles: 39697289 heartbeat IPC: 1.70387 cumulative IPC: 1.90073 (Simulation time: 1 hr 29 min 26 sec) 
Heartbeat CPU 0 instructions: 79000003 cycles: 40276456 heartbeat IPC: 1.72662 cumulative IPC: 1.89796 (Simulation time: 1 hr 30 min 39 sec) 
Heartbeat CPU 0 instructions: 80000000 cycles: 40856898 heartbeat IPC: 1.72282 cumulative IPC: 1.8952 (Simulation time: 1 hr 31 min 50 sec) 
Heartbeat CPU 0 instructions: 81000001 cycles: 41438724 heartbeat IPC: 1.71873 cumulative IPC: 1.89247 (Simulation time: 1 hr 33 min 3 sec) 
Heartbeat CPU 0 instructions: 82000003 cycles: 42008173 heartbeat IPC: 1.75609 cumulative IPC: 1.89043 (Simulation time: 1 hr 34 min 15 sec) 
Heartbeat CPU 0 instructions: 83000003 cycles: 42582674 heartbeat IPC: 1.74064 cumulative IPC: 1.8882 (Simulation time: 1 hr 35 min 27 sec) 
Heartbeat CPU 0 instructions: 84000000 cycles: 43193905 heartbeat IPC: 1.63604 cumulative IPC: 1.88428 (Simulation time: 1 hr 36 min 35 sec) 
Heartbeat CPU 0 instructions: 85000002 cycles: 43737226 heartbeat IPC: 1.84054 cumulative IPC: 1.88368 (Simulation time: 1 hr 37 min 44 sec) 
Heartbeat CPU 0 instructions: 86000001 cycles: 44449614 heartbeat IPC: 1.40373 cumulative IPC: 1.87524 (Simulation time: 1 hr 39 min 4 sec) 
Heartbeat CPU 0 instructions: 87000001 cycles: 45037223 heartbeat IPC: 1.70181 cumulative IPC: 1.87277 (Simulation time: 1 hr 40 min 18 sec) 
Heartbeat CPU 0 instructions: 88000000 cycles: 45504895 heartbeat IPC: 2.13825 cumulative IPC: 1.87575 (Simulation time: 1 hr 41 min 26 sec) 
Heartbeat CPU 0 instructions: 89000000 cycles: 45969556 heartbeat IPC: 2.15211 cumulative IPC: 1.87881 (Simulation time: 1 hr 42 min 35 sec) 
Heartbeat CPU 0 instructions: 90000001 cycles: 46439521 heartbeat IPC: 2.12782 cumulative IPC: 1.88156 (Simulation time: 1 hr 43 min 44 sec) 
Heartbeat CPU 0 instructions: 91000002 cycles: 46987390 heartbeat IPC: 1.82526 cumulative IPC: 1.88084 (Simulation time: 1 hr 44 min 54 sec) 
Heartbeat CPU 0 instructions: 92000000 cycles: 47515998 heartbeat IPC: 1.89176 cumulative IPC: 1.88097 (Simulation time: 1 hr 46 min 3 sec) 
Heartbeat CPU 0 instructions: 93000000 cycles: 48044781 heartbeat IPC: 1.89113 cumulative IPC: 1.8811 (Simulation time: 1 hr 47 min 10 sec) 
Heartbeat CPU 0 instructions: 94000003 cycles: 48558369 heartbeat IPC: 1.94709 cumulative IPC: 1.88186 (Simulation time: 1 hr 48 min 17 sec) 
Heartbeat CPU 0 instructions: 95000003 cycles: 49107658 heartbeat IPC: 1.82054 cumulative IPC: 1.88111 (Simulation time: 1 hr 49 min 27 sec) 
Heartbeat CPU 0 instructions: 96000000 cycles: 49586547 heartbeat IPC: 2.08816 cumulative IPC: 1.88328 (Simulation time: 1 hr 50 min 35 sec) 
Heartbeat CPU 0 instructions: 97000002 cycles: 50076429 heartbeat IPC: 2.04131 cumulative IPC: 1.88496 (Simulation time: 1 hr 51 min 38 sec) 
Heartbeat CPU 0 instructions: 98000001 cycles: 50549794 heartbeat IPC: 2.11253 cumulative IPC: 1.88727 (Simulation time: 1 hr 52 min 48 sec) 
Heartbeat CPU 0 instructions: 99000001 cycles: 51092334 heartbeat IPC: 1.84318 cumulative IPC: 1.88676 (Simulation time: 1 hr 53 min 59 sec) 
Heartbeat CPU 0 instructions: 100000000 cycles: 51574855 heartbeat IPC: 2.07245 cumulative IPC: 1.88864 (Simulation time: 1 hr 55 min 11 sec) 
Heartbeat CPU 0 instructions: 101000001 cycles: 52051777 heartbeat IPC: 2.09678 cumulative IPC: 1.8907 (Simulation time: 1 hr 56 min 17 sec) 
Heartbeat CPU 0 instructions: 102000003 cycles: 52515881 heartbeat IPC: 2.15469 cumulative IPC: 1.89323 (Simulation time: 1 hr 57 min 25 sec) 
Heartbeat CPU 0 instructions: 103000003 cycles: 53040732 heartbeat IPC: 1.9053 cumulative IPC: 1.89335 (Simulation time: 1 hr 58 min 34 sec) 
Heartbeat CPU 0 instructions: 104000000 cycles: 53593139 heartbeat IPC: 1.81025 cumulative IPC: 1.89243 (Simulation time: 1 hr 59 min 44 sec) 
Heartbeat CPU 0 instructions: 105000001 cycles: 54017941 heartbeat IPC: 2.35404 cumulative IPC: 1.89634 (Simulation time: 2 hr 0 min 50 sec) 
Heartbeat CPU 0 instructions: 106000002 cycles: 54463949 heartbeat IPC: 2.24211 cumulative IPC: 1.8994 (Simulation time: 2 hr 1 min 59 sec) 
Heartbeat CPU 0 instructions: 107000001 cycles: 54915865 heartbeat IPC: 2.2128 cumulative IPC: 1.90217 (Simulation time: 2 hr 3 min 6 sec) 
Heartbeat CPU 0 instructions: 108000000 cycles: 55334854 heartbeat IPC: 2.3867 cumulative IPC: 1.90612 (Simulation time: 2 hr 4 min 12 sec) 
Heartbeat CPU 0 instructions: 109000000 cycles: 55808091 heartbeat IPC: 2.11311 cumulative IPC: 1.90801 (Simulation time: 2 hr 5 min 18 sec) 
Heartbeat CPU 0 instructions: 110000000 cycles: 56226802 heartbeat IPC: 2.38828 cumulative IPC: 1.91185 (Simulation time: 2 hr 6 min 26 sec) 
Finished CPU 0 instructions: 100000000 cycles: 52305235 cummulative IPC: 1.91185 (Simulation time: 2 hr 6 min 26 sec) 

ChampSim completed all CPUs

Region of Interest Statistics

CPU 0 cummulative IPC: 1.91185 instructions: 100000000 cycles: 52305235
LLC TOTAL     ACCESS:     865122  HIT:     516304  MISS:     348818
LLC LOAD      ACCESS:     110528  HIT:      89021  MISS:      21507
LLC RFO       ACCESS:        412  HIT:        401  MISS:         11
LLC PREFETCH  ACCESS:     655870  HIT:     337384  MISS:     318486
LLC WRITEBACK ACCESS:      98312  HIT:      89498  MISS:       8814
Insertion Distribution: 
	LOAD 9248 0 0 0 0 0 0 0 0 0 0 0 0 0 0 0 0 0 0 0 0 0 0 0 0 0 0 0 0 0 10215 4767 
	RFO 0 0 0 0 0 0 0 0 0 0 0 0 0 0 0 0 0 0 0 0 0 0 0 0 0 0 0 0 0 0 18 0 
	PREF 0 9544 0 0 0 0 0 0 0 0 0 0 0 0 0 0 0 0 0 0 0 0 0 0 0 0 0 0 0 0 46804 280374 
	WRITEBACK 0 0 0 0 0 0 0 0 0 0 0 0 0 0 0 0 0 0 0 0 0 0 0 0 0 0 0 0 0 0 0 8836 
Total Prefetch Downgrades: 2345
