
*** ChampSim Multicore Out-of-Order Simulator ***

Warmup Instructions: 10000000
Simulation Instructions: 100000000
Configuration: 2
Number of CPUs: 1
LLC sets: 2048
LLC ways: 16
Off-chip DRAM Channels: 1 Width: 64-bit Data Rate: 1600 MT/s

CPU 0 runs /datasets/cs240c-wi22-a00-public/data/Assignment2-gz/mcf_46B.trace.gz
CPU 0 L1D next line prefetcher
CPU 0 L2C IP-based stride prefetcher
Initialize SRRIP state
Heartbeat CPU 0 instructions: 1000002 cycles: 492175 heartbeat IPC: 2.0318 cumulative IPC: 2.0318 (Simulation time: 0 hr 1 min 50 sec) 
Heartbeat CPU 0 instructions: 2000002 cycles: 987157 heartbeat IPC: 2.02028 cumulative IPC: 2.02602 (Simulation time: 0 hr 3 min 40 sec) 
Heartbeat CPU 0 instructions: 3000003 cycles: 1513667 heartbeat IPC: 1.8993 cumulative IPC: 1.98194 (Simulation time: 0 hr 5 min 30 sec) 
Heartbeat CPU 0 instructions: 4000000 cycles: 2033384 heartbeat IPC: 1.92412 cumulative IPC: 1.96716 (Simulation time: 0 hr 7 min 20 sec) 
Heartbeat CPU 0 instructions: 5000000 cycles: 2526527 heartbeat IPC: 2.02781 cumulative IPC: 1.979 (Simulation time: 0 hr 9 min 7 sec) 
Heartbeat CPU 0 instructions: 6000002 cycles: 3029232 heartbeat IPC: 1.98924 cumulative IPC: 1.9807 (Simulation time: 0 hr 10 min 59 sec) 
Heartbeat CPU 0 instructions: 7000001 cycles: 3577431 heartbeat IPC: 1.82415 cumulative IPC: 1.95671 (Simulation time: 0 hr 12 min 45 sec) 
Heartbeat CPU 0 instructions: 8000000 cycles: 4067300 heartbeat IPC: 2.04136 cumulative IPC: 1.96691 (Simulation time: 0 hr 14 min 28 sec) 
Heartbeat CPU 0 instructions: 9000001 cycles: 4550233 heartbeat IPC: 2.07068 cumulative IPC: 1.97792 (Simulation time: 0 hr 16 min 12 sec) 
Heartbeat CPU 0 instructions: 10000001 cycles: 5085843 heartbeat IPC: 1.86703 cumulative IPC: 1.96624 (Simulation time: 0 hr 18 min 1 sec) 

Warmup complete CPU 0 instructions: 10000001 cycles: 5085843 (Simulation time: 0 hr 18 min 1 sec) 

Heartbeat CPU 0 instructions: 11000002 cycles: 15945547 heartbeat IPC: 0.0920836 cumulative IPC: 0.0920836 (Simulation time: 0 hr 21 min 6 sec) 
Heartbeat CPU 0 instructions: 12000000 cycles: 20303361 heartbeat IPC: 0.229472 cumulative IPC: 0.131427 (Simulation time: 0 hr 23 min 16 sec) 
Heartbeat CPU 0 instructions: 13000000 cycles: 27596836 heartbeat IPC: 0.137109 cumulative IPC: 0.133268 (Simulation time: 0 hr 25 min 54 sec) 
Heartbeat CPU 0 instructions: 14000003 cycles: 41511840 heartbeat IPC: 0.0718651 cumulative IPC: 0.109812 (Simulation time: 0 hr 29 min 18 sec) 
Heartbeat CPU 0 instructions: 15000000 cycles: 45787233 heartbeat IPC: 0.233896 cumulative IPC: 0.122846 (Simulation time: 0 hr 31 min 40 sec) 
Heartbeat CPU 0 instructions: 16000000 cycles: 49645327 heartbeat IPC: 0.259195 cumulative IPC: 0.134651 (Simulation time: 0 hr 33 min 57 sec) 
Heartbeat CPU 0 instructions: 17000002 cycles: 65179746 heartbeat IPC: 0.0643733 cumulative IPC: 0.116484 (Simulation time: 0 hr 37 min 38 sec) 
Heartbeat CPU 0 instructions: 18000001 cycles: 70551837 heartbeat IPC: 0.186147 cumulative IPC: 0.122201 (Simulation time: 0 hr 40 min 5 sec) 
Heartbeat CPU 0 instructions: 19000001 cycles: 75294395 heartbeat IPC: 0.210857 cumulative IPC: 0.12819 (Simulation time: 0 hr 42 min 30 sec) 
Heartbeat CPU 0 instructions: 20000000 cycles: 87748283 heartbeat IPC: 0.0802961 cumulative IPC: 0.120974 (Simulation time: 0 hr 45 min 44 sec) 
Heartbeat CPU 0 instructions: 21000002 cycles: 103802267 heartbeat IPC: 0.06229 cumulative IPC: 0.11143 (Simulation time: 0 hr 49 min 35 sec) 
Heartbeat CPU 0 instructions: 22000002 cycles: 108110157 heartbeat IPC: 0.232132 cumulative IPC: 0.116477 (Simulation time: 0 hr 51 min 52 sec) 
Heartbeat CPU 0 instructions: 23000001 cycles: 112025182 heartbeat IPC: 0.255426 cumulative IPC: 0.121564 (Simulation time: 0 hr 54 min 7 sec) 
Heartbeat CPU 0 instructions: 24000000 cycles: 124836553 heartbeat IPC: 0.0780556 cumulative IPC: 0.11691 (Simulation time: 0 hr 57 min 24 sec) 
Heartbeat CPU 0 instructions: 25000002 cycles: 132514256 heartbeat IPC: 0.130248 cumulative IPC: 0.117713 (Simulation time: 1 hr 0 min 6 sec) 
Heartbeat CPU 0 instructions: 26000001 cycles: 136359654 heartbeat IPC: 0.260051 cumulative IPC: 0.121883 (Simulation time: 1 hr 2 min 23 sec) 
Heartbeat CPU 0 instructions: 27000000 cycles: 146029629 heartbeat IPC: 0.103413 cumulative IPC: 0.120615 (Simulation time: 1 hr 5 min 28 sec) 
Heartbeat CPU 0 instructions: 28000000 cycles: 157428182 heartbeat IPC: 0.0877304 cumulative IPC: 0.118155 (Simulation time: 1 hr 8 min 39 sec) 
Heartbeat CPU 0 instructions: 29000001 cycles: 161772433 heartbeat IPC: 0.23019 cumulative IPC: 0.121261 (Simulation time: 1 hr 11 min 1 sec) 
Heartbeat CPU 0 instructions: 30000000 cycles: 168909562 heartbeat IPC: 0.140112 cumulative IPC: 0.122082 (Simulation time: 1 hr 13 min 38 sec) 
Heartbeat CPU 0 instructions: 31000002 cycles: 182819432 heartbeat IPC: 0.0718915 cumulative IPC: 0.118154 (Simulation time: 1 hr 17 min 6 sec) 
Heartbeat CPU 0 instructions: 32000000 cycles: 187179337 heartbeat IPC: 0.229362 cumulative IPC: 0.120817 (Simulation time: 1 hr 19 min 25 sec) 
Heartbeat CPU 0 instructions: 33000000 cycles: 193614147 heartbeat IPC: 0.155405 cumulative IPC: 0.121998 (Simulation time: 1 hr 21 min 47 sec) 
Heartbeat CPU 0 instructions: 34000000 cycles: 208937925 heartbeat IPC: 0.0652581 cumulative IPC: 0.117732 (Simulation time: 1 hr 25 min 31 sec) 
Heartbeat CPU 0 instructions: 35000000 cycles: 215147797 heartbeat IPC: 0.161034 cumulative IPC: 0.119013 (Simulation time: 1 hr 27 min 58 sec) 
Heartbeat CPU 0 instructions: 36000000 cycles: 221066955 heartbeat IPC: 0.168943 cumulative IPC: 0.120381 (Simulation time: 1 hr 30 min 23 sec) 
Heartbeat CPU 0 instructions: 37000002 cycles: 231027672 heartbeat IPC: 0.100395 cumulative IPC: 0.1195 (Simulation time: 1 hr 33 min 17 sec) 
Heartbeat CPU 0 instructions: 38000000 cycles: 242135912 heartbeat IPC: 0.0900231 cumulative IPC: 0.118119 (Simulation time: 1 hr 36 min 19 sec) 
Heartbeat CPU 0 instructions: 39000000 cycles: 246237528 heartbeat IPC: 0.243806 cumulative IPC: 0.120256 (Simulation time: 1 hr 38 min 29 sec) 
Heartbeat CPU 0 instructions: 40000000 cycles: 252090414 heartbeat IPC: 0.170856 cumulative IPC: 0.121455 (Simulation time: 1 hr 40 min 58 sec) 
Heartbeat CPU 0 instructions: 41000000 cycles: 267174074 heartbeat IPC: 0.0662969 cumulative IPC: 0.118281 (Simulation time: 1 hr 44 min 41 sec) 
Heartbeat CPU 0 instructions: 42000001 cycles: 271690989 heartbeat IPC: 0.22139 cumulative IPC: 0.120028 (Simulation time: 1 hr 46 min 53 sec) 
Heartbeat CPU 0 instructions: 43000000 cycles: 275759404 heartbeat IPC: 0.245796 cumulative IPC: 0.121918 (Simulation time: 1 hr 49 min 0 sec) 
Heartbeat CPU 0 instructions: 44000000 cycles: 289414803 heartbeat IPC: 0.0732311 cumulative IPC: 0.11958 (Simulation time: 1 hr 52 min 23 sec) 
Heartbeat CPU 0 instructions: 45000001 cycles: 296878827 heartbeat IPC: 0.133976 cumulative IPC: 0.119948 (Simulation time: 1 hr 55 min 9 sec) 
Heartbeat CPU 0 instructions: 46000001 cycles: 301049067 heartbeat IPC: 0.239794 cumulative IPC: 0.121637 (Simulation time: 1 hr 57 min 18 sec) 
Heartbeat CPU 0 instructions: 47000002 cycles: 310486234 heartbeat IPC: 0.105964 cumulative IPC: 0.121152 (Simulation time: 2 hr 0 min 10 sec) 
Heartbeat CPU 0 instructions: 48000000 cycles: 322381107 heartbeat IPC: 0.0840697 cumulative IPC: 0.119762 (Simulation time: 2 hr 3 min 22 sec) 
Heartbeat CPU 0 instructions: 49000000 cycles: 326911694 heartbeat IPC: 0.220722 cumulative IPC: 0.121184 (Simulation time: 2 hr 5 min 32 sec) 
Heartbeat CPU 0 instructions: 50000001 cycles: 333124632 heartbeat IPC: 0.160955 cumulative IPC: 0.121937 (Simulation time: 2 hr 7 min 50 sec) 
Heartbeat CPU 0 instructions: 51000001 cycles: 347619402 heartbeat IPC: 0.0689904 cumulative IPC: 0.119696 (Simulation time: 2 hr 11 min 21 sec) 
Heartbeat CPU 0 instructions: 52000000 cycles: 352303392 heartbeat IPC: 0.213493 cumulative IPC: 0.120962 (Simulation time: 2 hr 13 min 33 sec) 
Heartbeat CPU 0 instructions: 53000000 cycles: 356415540 heartbeat IPC: 0.243182 cumulative IPC: 0.122392 (Simulation time: 2 hr 15 min 35 sec) 
Heartbeat CPU 0 instructions: 54000002 cycles: 372242839 heartbeat IPC: 0.0631821 cumulative IPC: 0.11984 (Simulation time: 2 hr 19 min 6 sec) 
Heartbeat CPU 0 instructions: 55000002 cycles: 377380504 heartbeat IPC: 0.194641 cumulative IPC: 0.120872 (Simulation time: 2 hr 21 min 17 sec) 
Heartbeat CPU 0 instructions: 56000000 cycles: 381700759 heartbeat IPC: 0.231467 cumulative IPC: 0.122141 (Simulation time: 2 hr 23 min 16 sec) 
Heartbeat CPU 0 instructions: 57000000 cycles: 395406481 heartbeat IPC: 0.0729622 cumulative IPC: 0.120414 (Simulation time: 2 hr 26 min 14 sec) 
Heartbeat CPU 0 instructions: 58000000 cycles: 403025486 heartbeat IPC: 0.131251 cumulative IPC: 0.120621 (Simulation time: 2 hr 28 min 9 sec) 
Heartbeat CPU 0 instructions: 59000002 cycles: 407250520 heartbeat IPC: 0.236685 cumulative IPC: 0.121841 (Simulation time: 2 hr 29 min 42 sec) 
Heartbeat CPU 0 instructions: 60000000 cycles: 418868451 heartbeat IPC: 0.0860737 cumulative IPC: 0.120836 (Simulation time: 2 hr 31 min 36 sec) 
Heartbeat CPU 0 instructions: 61000002 cycles: 428487991 heartbeat IPC: 0.103955 cumulative IPC: 0.120453 (Simulation time: 2 hr 33 min 12 sec) 
Heartbeat CPU 0 instructions: 62000000 cycles: 432700667 heartbeat IPC: 0.237378 cumulative IPC: 0.121605 (Simulation time: 2 hr 34 min 22 sec) 
Heartbeat CPU 0 instructions: 63000001 cycles: 442581632 heartbeat IPC: 0.101205 cumulative IPC: 0.121144 (Simulation time: 2 hr 35 min 54 sec) 
Heartbeat CPU 0 instructions: 64000000 cycles: 453925019 heartbeat IPC: 0.088157 cumulative IPC: 0.12031 (Simulation time: 2 hr 37 min 25 sec) 
Heartbeat CPU 0 instructions: 65000002 cycles: 459430888 heartbeat IPC: 0.181625 cumulative IPC: 0.121053 (Simulation time: 2 hr 38 min 29 sec) 
Heartbeat CPU 0 instructions: 66000000 cycles: 465838596 heartbeat IPC: 0.156062 cumulative IPC: 0.12154 (Simulation time: 2 hr 39 min 38 sec) 
Heartbeat CPU 0 instructions: 67000002 cycles: 481815940 heartbeat IPC: 0.0625888 cumulative IPC: 0.119565 (Simulation time: 2 hr 41 min 13 sec) 
Heartbeat CPU 0 instructions: 68000000 cycles: 486314386 heartbeat IPC: 0.222299 cumulative IPC: 0.120525 (Simulation time: 2 hr 42 min 9 sec) 
Heartbeat CPU 0 instructions: 69000000 cycles: 490386530 heartbeat IPC: 0.245571 cumulative IPC: 0.121574 (Simulation time: 2 hr 43 min 2 sec) 
Heartbeat CPU 0 instructions: 70000001 cycles: 504730856 heartbeat IPC: 0.069714 cumulative IPC: 0.120085 (Simulation time: 2 hr 44 min 20 sec) 
Heartbeat CPU 0 instructions: 71000002 cycles: 513011873 heartbeat IPC: 0.120758 cumulative IPC: 0.120096 (Simulation time: 2 hr 45 min 18 sec) 
Heartbeat CPU 0 instructions: 72000000 cycles: 517893240 heartbeat IPC: 0.20486 cumulative IPC: 0.120903 (Simulation time: 2 hr 46 min 3 sec) 
Heartbeat CPU 0 instructions: 73000002 cycles: 526923337 heartbeat IPC: 0.110741 cumulative IPC: 0.120727 (Simulation time: 2 hr 46 min 53 sec) 
Heartbeat CPU 0 instructions: 74000001 cycles: 539011160 heartbeat IPC: 0.0827278 cumulative IPC: 0.119867 (Simulation time: 2 hr 47 min 47 sec) 
Heartbeat CPU 0 instructions: 75000002 cycles: 543767768 heartbeat IPC: 0.210234 cumulative IPC: 0.120665 (Simulation time: 2 hr 48 min 23 sec) 
Heartbeat CPU 0 instructions: 76000000 cycles: 549636603 heartbeat IPC: 0.170391 cumulative IPC: 0.121201 (Simulation time: 2 hr 49 min 1 sec) 
Heartbeat CPU 0 instructions: 77000001 cycles: 565582487 heartbeat IPC: 0.0627122 cumulative IPC: 0.119537 (Simulation time: 2 hr 49 min 55 sec) 
Heartbeat CPU 0 instructions: 78000002 cycles: 570240405 heartbeat IPC: 0.214688 cumulative IPC: 0.120321 (Simulation time: 2 hr 50 min 25 sec) 
Heartbeat CPU 0 instructions: 79000001 cycles: 574573410 heartbeat IPC: 0.230786 cumulative IPC: 0.121162 (Simulation time: 2 hr 50 min 51 sec) 
Heartbeat CPU 0 instructions: 80000000 cycles: 588069156 heartbeat IPC: 0.0740974 cumulative IPC: 0.120072 (Simulation time: 2 hr 51 min 28 sec) 
Heartbeat CPU 0 instructions: 81000000 cycles: 595767709 heartbeat IPC: 0.129895 cumulative IPC: 0.1202 (Simulation time: 2 hr 51 min 54 sec) 
Heartbeat CPU 0 instructions: 82000000 cycles: 600561189 heartbeat IPC: 0.208617 cumulative IPC: 0.120912 (Simulation time: 2 hr 52 min 12 sec) 
Heartbeat CPU 0 instructions: 83000001 cycles: 610239584 heartbeat IPC: 0.103323 cumulative IPC: 0.120631 (Simulation time: 2 hr 52 min 33 sec) 
Heartbeat CPU 0 instructions: 84000000 cycles: 621698955 heartbeat IPC: 0.0872647 cumulative IPC: 0.12001 (Simulation time: 2 hr 52 min 54 sec) 
Heartbeat CPU 0 instructions: 85000001 cycles: 625912282 heartbeat IPC: 0.237342 cumulative IPC: 0.120807 (Simulation time: 2 hr 53 min 5 sec) 
Heartbeat CPU 0 instructions: 86000000 cycles: 633629907 heartbeat IPC: 0.129573 cumulative IPC: 0.120914 (Simulation time: 2 hr 53 min 18 sec) 
Heartbeat CPU 0 instructions: 87000000 cycles: 648383926 heartbeat IPC: 0.0677781 cumulative IPC: 0.119696 (Simulation time: 2 hr 53 min 35 sec) 
Heartbeat CPU 0 instructions: 88000000 cycles: 654474377 heartbeat IPC: 0.164191 cumulative IPC: 0.120113 (Simulation time: 2 hr 53 min 47 sec) 
Heartbeat CPU 0 instructions: 89000000 cycles: 658608242 heartbeat IPC: 0.241904 cumulative IPC: 0.120883 (Simulation time: 2 hr 53 min 57 sec) 
Heartbeat CPU 0 instructions: 90000003 cycles: 670604076 heartbeat IPC: 0.0833625 cumulative IPC: 0.120207 (Simulation time: 2 hr 54 min 12 sec) 
Heartbeat CPU 0 instructions: 91000000 cycles: 679727348 heartbeat IPC: 0.109609 cumulative IPC: 0.120064 (Simulation time: 2 hr 54 min 25 sec) 
Heartbeat CPU 0 instructions: 92000000 cycles: 683959575 heartbeat IPC: 0.236282 cumulative IPC: 0.120788 (Simulation time: 2 hr 54 min 34 sec) 
Heartbeat CPU 0 instructions: 93000002 cycles: 692849640 heartbeat IPC: 0.112485 cumulative IPC: 0.120681 (Simulation time: 2 hr 54 min 46 sec) 
Heartbeat CPU 0 instructions: 94000002 cycles: 704857465 heartbeat IPC: 0.083279 cumulative IPC: 0.120039 (Simulation time: 2 hr 54 min 58 sec) 
Heartbeat CPU 0 instructions: 95000000 cycles: 710438791 heartbeat IPC: 0.179169 cumulative IPC: 0.120507 (Simulation time: 2 hr 55 min 4 sec) 
Heartbeat CPU 0 instructions: 96000000 cycles: 715987779 heartbeat IPC: 0.180213 cumulative IPC: 0.120973 (Simulation time: 2 hr 55 min 10 sec) 
Heartbeat CPU 0 instructions: 97000000 cycles: 731486346 heartbeat IPC: 0.0645221 cumulative IPC: 0.119769 (Simulation time: 2 hr 55 min 18 sec) 
Heartbeat CPU 0 instructions: 98000002 cycles: 736176790 heartbeat IPC: 0.2132 cumulative IPC: 0.120368 (Simulation time: 2 hr 55 min 24 sec) 
Heartbeat CPU 0 instructions: 99000002 cycles: 740928650 heartbeat IPC: 0.210444 cumulative IPC: 0.12095 (Simulation time: 2 hr 55 min 29 sec) 
Heartbeat CPU 0 instructions: 100000000 cycles: 755279869 heartbeat IPC: 0.0696804 cumulative IPC: 0.119969 (Simulation time: 2 hr 55 min 38 sec) 
Heartbeat CPU 0 instructions: 101000000 cycles: 762145219 heartbeat IPC: 0.145659 cumulative IPC: 0.120202 (Simulation time: 2 hr 55 min 45 sec) 
Heartbeat CPU 0 instructions: 102000003 cycles: 766351114 heartbeat IPC: 0.237762 cumulative IPC: 0.120851 (Simulation time: 2 hr 55 min 50 sec) 
Heartbeat CPU 0 instructions: 103000003 cycles: 778501165 heartbeat IPC: 0.0823042 cumulative IPC: 0.120246 (Simulation time: 2 hr 55 min 59 sec) 
Heartbeat CPU 0 instructions: 104000000 cycles: 789666860 heartbeat IPC: 0.0895598 cumulative IPC: 0.119809 (Simulation time: 2 hr 56 min 8 sec) 
Heartbeat CPU 0 instructions: 105000000 cycles: 794332762 heartbeat IPC: 0.214321 cumulative IPC: 0.120368 (Simulation time: 2 hr 56 min 13 sec) 
Heartbeat CPU 0 instructions: 106000000 cycles: 798493497 heartbeat IPC: 0.240342 cumulative IPC: 0.120997 (Simulation time: 2 hr 56 min 19 sec) 
Heartbeat CPU 0 instructions: 107000002 cycles: 814276401 heartbeat IPC: 0.0633598 cumulative IPC: 0.119873 (Simulation time: 2 hr 56 min 29 sec) 
Heartbeat CPU 0 instructions: 108000000 cycles: 819624413 heartbeat IPC: 0.186985 cumulative IPC: 0.120314 (Simulation time: 2 hr 56 min 35 sec) 
Heartbeat CPU 0 instructions: 109000001 cycles: 823862325 heartbeat IPC: 0.235965 cumulative IPC: 0.120912 (Simulation time: 2 hr 56 min 41 sec) 
Heartbeat CPU 0 instructions: 110000002 cycles: 833709861 heartbeat IPC: 0.101548 cumulative IPC: 0.120682 (Simulation time: 2 hr 56 min 49 sec) 
Finished CPU 0 instructions: 100000001 cycles: 828624018 cummulative IPC: 0.120682 (Simulation time: 2 hr 56 min 49 sec) 

ChampSim completed all CPUs

Region of Interest Statistics

CPU 0 cummulative IPC: 0.120682 instructions: 100000001 cycles: 828624018
LLC TOTAL     ACCESS:   18760624  HIT:    7891562  MISS:   10869062
LLC LOAD      ACCESS:    8471103  HIT:    4322592  MISS:    4148511
LLC RFO       ACCESS:     206409  HIT:      81067  MISS:     125342
LLC PREFETCH  ACCESS:    7975464  HIT:    2100778  MISS:    5874686
LLC WRITEBACK ACCESS:    2107648  HIT:    1387125  MISS:     720523
Insertion Distribution: 
	LOAD 525471 0 0 0 0 0 0 0 0 0 0 0 0 0 0 0 0 0 0 0 0 0 0 0 0 0 0 0 0 0 392736 3561453 
	RFO 36524 0 0 0 0 0 0 0 0 0 0 0 0 0 0 0 0 0 0 0 0 0 0 0 0 0 0 0 0 0 11181 89700 
	PREF 0 825764 0 0 0 0 0 0 0 0 0 0 0 0 0 0 0 0 0 0 0 0 0 0 0 0 0 0 0 0 935905 4740079 
	WRITEBACK 0 0 0 0 0 0 0 0 0 0 0 0 0 0 0 0 0 0 0 0 0 0 0 0 0 0 0 0 0 0 0 792062 
Total Prefetch Downgrades: 847538
