
*** ChampSim Multicore Out-of-Order Simulator ***

Warmup Instructions: 10000000
Simulation Instructions: 100000000
Configuration: 2
Number of CPUs: 1
LLC sets: 2048
LLC ways: 16
Off-chip DRAM Channels: 1 Width: 64-bit Data Rate: 1600 MT/s

CPU 0 runs /datasets/cs240c-wi22-a00-public/data/Assignment2-gz/libquantum_964B.trace.gz
CPU 0 L1D next line prefetcher
CPU 0 L2C IP-based stride prefetcher
Initialize SRRIP state
Heartbeat CPU 0 instructions: 1000002 cycles: 333341 heartbeat IPC: 2.99994 cumulative IPC: 2.99994 (Simulation time: 0 hr 0 min 55 sec) 
Heartbeat CPU 0 instructions: 2000001 cycles: 666674 heartbeat IPC: 3 cumulative IPC: 2.99997 (Simulation time: 0 hr 1 min 58 sec) 
Heartbeat CPU 0 instructions: 3000000 cycles: 1000007 heartbeat IPC: 3 cumulative IPC: 2.99998 (Simulation time: 0 hr 3 min 2 sec) 
Heartbeat CPU 0 instructions: 4000000 cycles: 1333341 heartbeat IPC: 2.99999 cumulative IPC: 2.99998 (Simulation time: 0 hr 4 min 4 sec) 
Heartbeat CPU 0 instructions: 5000000 cycles: 1666674 heartbeat IPC: 3 cumulative IPC: 2.99999 (Simulation time: 0 hr 5 min 10 sec) 
Heartbeat CPU 0 instructions: 6000002 cycles: 2000008 heartbeat IPC: 3 cumulative IPC: 2.99999 (Simulation time: 0 hr 6 min 9 sec) 
Heartbeat CPU 0 instructions: 7000001 cycles: 2331518 heartbeat IPC: 3.0165 cumulative IPC: 3.00234 (Simulation time: 0 hr 7 min 11 sec) 
Heartbeat CPU 0 instructions: 8000000 cycles: 2662240 heartbeat IPC: 3.02368 cumulative IPC: 3.00499 (Simulation time: 0 hr 8 min 10 sec) 
Heartbeat CPU 0 instructions: 9000001 cycles: 2992962 heartbeat IPC: 3.02369 cumulative IPC: 3.00705 (Simulation time: 0 hr 9 min 12 sec) 
Heartbeat CPU 0 instructions: 10000001 cycles: 3323684 heartbeat IPC: 3.02369 cumulative IPC: 3.00871 (Simulation time: 0 hr 10 min 20 sec) 

Warmup complete CPU 0 instructions: 10000001 cycles: 3323684 (Simulation time: 0 hr 10 min 20 sec) 

Heartbeat CPU 0 instructions: 11000000 cycles: 5060059 heartbeat IPC: 0.575912 cumulative IPC: 0.575912 (Simulation time: 0 hr 11 min 59 sec) 
Heartbeat CPU 0 instructions: 12000000 cycles: 6808477 heartbeat IPC: 0.571946 cumulative IPC: 0.573922 (Simulation time: 0 hr 13 min 36 sec) 
Heartbeat CPU 0 instructions: 13000001 cycles: 8552271 heartbeat IPC: 0.573463 cumulative IPC: 0.573769 (Simulation time: 0 hr 15 min 12 sec) 
Heartbeat CPU 0 instructions: 14000000 cycles: 10294197 heartbeat IPC: 0.574077 cumulative IPC: 0.573846 (Simulation time: 0 hr 17 min 0 sec) 
Heartbeat CPU 0 instructions: 15000003 cycles: 12041297 heartbeat IPC: 0.572379 cumulative IPC: 0.573552 (Simulation time: 0 hr 18 min 38 sec) 
Heartbeat CPU 0 instructions: 16000000 cycles: 13781303 heartbeat IPC: 0.574709 cumulative IPC: 0.573744 (Simulation time: 0 hr 20 min 12 sec) 
Heartbeat CPU 0 instructions: 17000000 cycles: 15531627 heartbeat IPC: 0.571323 cumulative IPC: 0.573397 (Simulation time: 0 hr 21 min 43 sec) 
Heartbeat CPU 0 instructions: 18000003 cycles: 17268988 heartbeat IPC: 0.575587 cumulative IPC: 0.57367 (Simulation time: 0 hr 23 min 15 sec) 
Heartbeat CPU 0 instructions: 19000002 cycles: 19001617 heartbeat IPC: 0.577157 cumulative IPC: 0.574055 (Simulation time: 0 hr 24 min 50 sec) 
Heartbeat CPU 0 instructions: 20000000 cycles: 20218482 heartbeat IPC: 0.821782 cumulative IPC: 0.591898 (Simulation time: 0 hr 26 min 22 sec) 
Heartbeat CPU 0 instructions: 21000003 cycles: 21951066 heartbeat IPC: 0.577174 cumulative IPC: 0.590529 (Simulation time: 0 hr 27 min 54 sec) 
Heartbeat CPU 0 instructions: 22000002 cycles: 23697773 heartbeat IPC: 0.572505 cumulative IPC: 0.588983 (Simulation time: 0 hr 29 min 34 sec) 
Heartbeat CPU 0 instructions: 23000000 cycles: 25439296 heartbeat IPC: 0.574209 cumulative IPC: 0.58782 (Simulation time: 0 hr 31 min 10 sec) 
Heartbeat CPU 0 instructions: 24000000 cycles: 27192599 heartbeat IPC: 0.570352 cumulative IPC: 0.586537 (Simulation time: 0 hr 32 min 46 sec) 
Heartbeat CPU 0 instructions: 25000000 cycles: 28933991 heartbeat IPC: 0.574253 cumulative IPC: 0.585702 (Simulation time: 0 hr 34 min 25 sec) 
Heartbeat CPU 0 instructions: 26000002 cycles: 30915618 heartbeat IPC: 0.504637 cumulative IPC: 0.57988 (Simulation time: 0 hr 36 min 15 sec) 
Heartbeat CPU 0 instructions: 27000002 cycles: 33277390 heartbeat IPC: 0.423411 cumulative IPC: 0.567542 (Simulation time: 0 hr 38 min 21 sec) 
Heartbeat CPU 0 instructions: 28000000 cycles: 35633747 heartbeat IPC: 0.424383 cumulative IPC: 0.557102 (Simulation time: 0 hr 40 min 34 sec) 
Heartbeat CPU 0 instructions: 29000002 cycles: 38000781 heartbeat IPC: 0.42247 cumulative IPC: 0.547912 (Simulation time: 0 hr 42 min 49 sec) 
Heartbeat CPU 0 instructions: 30000002 cycles: 40366593 heartbeat IPC: 0.422688 cumulative IPC: 0.539914 (Simulation time: 0 hr 44 min 59 sec) 
Heartbeat CPU 0 instructions: 31000002 cycles: 42730064 heartbeat IPC: 0.423107 cumulative IPC: 0.532909 (Simulation time: 0 hr 47 min 8 sec) 
Heartbeat CPU 0 instructions: 32000000 cycles: 45083294 heartbeat IPC: 0.424947 cumulative IPC: 0.526825 (Simulation time: 0 hr 49 min 14 sec) 
Heartbeat CPU 0 instructions: 33000002 cycles: 47045840 heartbeat IPC: 0.509543 cumulative IPC: 0.526049 (Simulation time: 0 hr 51 min 17 sec) 
Heartbeat CPU 0 instructions: 34000002 cycles: 49394299 heartbeat IPC: 0.425811 cumulative IPC: 0.520939 (Simulation time: 0 hr 53 min 26 sec) 
Heartbeat CPU 0 instructions: 35000002 cycles: 51754321 heartbeat IPC: 0.423725 cumulative IPC: 0.516202 (Simulation time: 0 hr 55 min 33 sec) 
Heartbeat CPU 0 instructions: 36000000 cycles: 53881666 heartbeat IPC: 0.470069 cumulative IPC: 0.514261 (Simulation time: 0 hr 57 min 29 sec) 
Heartbeat CPU 0 instructions: 37000001 cycles: 55646540 heartbeat IPC: 0.566613 cumulative IPC: 0.516027 (Simulation time: 0 hr 59 min 20 sec) 
Heartbeat CPU 0 instructions: 38000000 cycles: 57141679 heartbeat IPC: 0.668833 cumulative IPC: 0.520272 (Simulation time: 1 hr 1 min 12 sec) 
Heartbeat CPU 0 instructions: 39000003 cycles: 58607845 heartbeat IPC: 0.682053 cumulative IPC: 0.524563 (Simulation time: 1 hr 2 min 58 sec) 
Heartbeat CPU 0 instructions: 40000000 cycles: 60073927 heartbeat IPC: 0.682088 cumulative IPC: 0.528632 (Simulation time: 1 hr 4 min 41 sec) 
Heartbeat CPU 0 instructions: 41000001 cycles: 61540147 heartbeat IPC: 0.682027 cumulative IPC: 0.532495 (Simulation time: 1 hr 6 min 26 sec) 
Heartbeat CPU 0 instructions: 42000000 cycles: 63006237 heartbeat IPC: 0.682086 cumulative IPC: 0.53617 (Simulation time: 1 hr 8 min 8 sec) 
Heartbeat CPU 0 instructions: 43000001 cycles: 64472400 heartbeat IPC: 0.682053 cumulative IPC: 0.539668 (Simulation time: 1 hr 10 min 1 sec) 
Heartbeat CPU 0 instructions: 44000000 cycles: 65938483 heartbeat IPC: 0.682089 cumulative IPC: 0.543003 (Simulation time: 1 hr 11 min 48 sec) 
Heartbeat CPU 0 instructions: 45000002 cycles: 67404590 heartbeat IPC: 0.68208 cumulative IPC: 0.546185 (Simulation time: 1 hr 13 min 31 sec) 
Heartbeat CPU 0 instructions: 46000001 cycles: 68870771 heartbeat IPC: 0.682043 cumulative IPC: 0.549223 (Simulation time: 1 hr 15 min 17 sec) 
Heartbeat CPU 0 instructions: 47000000 cycles: 70336861 heartbeat IPC: 0.682086 cumulative IPC: 0.55213 (Simulation time: 1 hr 17 min 4 sec) 
Heartbeat CPU 0 instructions: 48000000 cycles: 71803025 heartbeat IPC: 0.682052 cumulative IPC: 0.554912 (Simulation time: 1 hr 18 min 48 sec) 
Heartbeat CPU 0 instructions: 49000000 cycles: 73280523 heartbeat IPC: 0.67682 cumulative IPC: 0.557487 (Simulation time: 1 hr 20 min 31 sec) 
Heartbeat CPU 0 instructions: 50000001 cycles: 74740947 heartbeat IPC: 0.684733 cumulative IPC: 0.560089 (Simulation time: 1 hr 22 min 15 sec) 
Heartbeat CPU 0 instructions: 51000000 cycles: 76207037 heartbeat IPC: 0.682086 cumulative IPC: 0.562543 (Simulation time: 1 hr 23 min 57 sec) 
Heartbeat CPU 0 instructions: 52000000 cycles: 77673302 heartbeat IPC: 0.682005 cumulative IPC: 0.564899 (Simulation time: 1 hr 25 min 45 sec) 
Heartbeat CPU 0 instructions: 53000000 cycles: 79139508 heartbeat IPC: 0.682032 cumulative IPC: 0.567164 (Simulation time: 1 hr 27 min 23 sec) 
Heartbeat CPU 0 instructions: 54000002 cycles: 80605594 heartbeat IPC: 0.68209 cumulative IPC: 0.569344 (Simulation time: 1 hr 29 min 6 sec) 
Heartbeat CPU 0 instructions: 55000002 cycles: 82063266 heartbeat IPC: 0.686025 cumulative IPC: 0.571504 (Simulation time: 1 hr 30 min 48 sec) 
Heartbeat CPU 0 instructions: 56000000 cycles: 83605210 heartbeat IPC: 0.648531 cumulative IPC: 0.572984 (Simulation time: 1 hr 32 min 22 sec) 
Heartbeat CPU 0 instructions: 57000001 cycles: 85353515 heartbeat IPC: 0.571983 cumulative IPC: 0.572962 (Simulation time: 1 hr 33 min 59 sec) 
Heartbeat CPU 0 instructions: 58000000 cycles: 87103624 heartbeat IPC: 0.571392 cumulative IPC: 0.57293 (Simulation time: 1 hr 35 min 34 sec) 
Heartbeat CPU 0 instructions: 59000003 cycles: 88854464 heartbeat IPC: 0.571156 cumulative IPC: 0.572893 (Simulation time: 1 hr 36 min 59 sec) 
Heartbeat CPU 0 instructions: 60000000 cycles: 90601884 heartbeat IPC: 0.572271 cumulative IPC: 0.572881 (Simulation time: 1 hr 38 min 34 sec) 
Heartbeat CPU 0 instructions: 61000002 cycles: 92351898 heartbeat IPC: 0.571425 cumulative IPC: 0.572852 (Simulation time: 1 hr 40 min 10 sec) 
Heartbeat CPU 0 instructions: 62000001 cycles: 94105007 heartbeat IPC: 0.570415 cumulative IPC: 0.572805 (Simulation time: 1 hr 41 min 50 sec) 
Heartbeat CPU 0 instructions: 63000001 cycles: 95852940 heartbeat IPC: 0.572104 cumulative IPC: 0.572792 (Simulation time: 1 hr 43 min 26 sec) 
Heartbeat CPU 0 instructions: 64000000 cycles: 97608076 heartbeat IPC: 0.569756 cumulative IPC: 0.572735 (Simulation time: 1 hr 45 min 2 sec) 
Heartbeat CPU 0 instructions: 65000002 cycles: 99359961 heartbeat IPC: 0.570815 cumulative IPC: 0.5727 (Simulation time: 1 hr 46 min 25 sec) 
Heartbeat CPU 0 instructions: 66000002 cycles: 101107273 heartbeat IPC: 0.572308 cumulative IPC: 0.572693 (Simulation time: 1 hr 47 min 40 sec) 
Heartbeat CPU 0 instructions: 67000000 cycles: 102857201 heartbeat IPC: 0.571451 cumulative IPC: 0.572671 (Simulation time: 1 hr 48 min 59 sec) 
Heartbeat CPU 0 instructions: 68000000 cycles: 104602875 heartbeat IPC: 0.572845 cumulative IPC: 0.572674 (Simulation time: 1 hr 50 min 20 sec) 
Heartbeat CPU 0 instructions: 69000000 cycles: 106309219 heartbeat IPC: 0.586048 cumulative IPC: 0.572896 (Simulation time: 1 hr 51 min 35 sec) 
Heartbeat CPU 0 instructions: 70000002 cycles: 108056843 heartbeat IPC: 0.572207 cumulative IPC: 0.572885 (Simulation time: 1 hr 52 min 53 sec) 
Heartbeat CPU 0 instructions: 71000001 cycles: 109809000 heartbeat IPC: 0.570725 cumulative IPC: 0.572849 (Simulation time: 1 hr 54 min 13 sec) 
Heartbeat CPU 0 instructions: 72000000 cycles: 111559919 heartbeat IPC: 0.571128 cumulative IPC: 0.572821 (Simulation time: 1 hr 55 min 36 sec) 
Heartbeat CPU 0 instructions: 73000000 cycles: 113307482 heartbeat IPC: 0.572225 cumulative IPC: 0.572812 (Simulation time: 1 hr 56 min 53 sec) 
Heartbeat CPU 0 instructions: 74000000 cycles: 115039006 heartbeat IPC: 0.577526 cumulative IPC: 0.572885 (Simulation time: 1 hr 58 min 12 sec) 
Heartbeat CPU 0 instructions: 75000000 cycles: 117113190 heartbeat IPC: 0.482117 cumulative IPC: 0.57123 (Simulation time: 1 hr 59 min 48 sec) 
Heartbeat CPU 0 instructions: 76000000 cycles: 119454170 heartbeat IPC: 0.427172 cumulative IPC: 0.568326 (Simulation time: 2 hr 1 min 32 sec) 
Heartbeat CPU 0 instructions: 77000000 cycles: 121790831 heartbeat IPC: 0.427961 cumulative IPC: 0.565558 (Simulation time: 2 hr 3 min 16 sec) 
Heartbeat CPU 0 instructions: 78000000 cycles: 124153629 heartbeat IPC: 0.423227 cumulative IPC: 0.562774 (Simulation time: 2 hr 4 min 59 sec) 
Heartbeat CPU 0 instructions: 79000000 cycles: 126484205 heartbeat IPC: 0.429078 cumulative IPC: 0.560244 (Simulation time: 2 hr 6 min 38 sec) 
Heartbeat CPU 0 instructions: 80000000 cycles: 128832051 heartbeat IPC: 0.425922 cumulative IPC: 0.557732 (Simulation time: 2 hr 8 min 17 sec) 
Heartbeat CPU 0 instructions: 81000000 cycles: 131164601 heartbeat IPC: 0.428715 cumulative IPC: 0.555378 (Simulation time: 2 hr 9 min 59 sec) 
Heartbeat CPU 0 instructions: 82000000 cycles: 133433877 heartbeat IPC: 0.440669 cumulative IPC: 0.553377 (Simulation time: 2 hr 11 min 40 sec) 
Heartbeat CPU 0 instructions: 83000000 cycles: 135780448 heartbeat IPC: 0.426154 cumulative IPC: 0.551123 (Simulation time: 2 hr 13 min 16 sec) 
Heartbeat CPU 0 instructions: 84000000 cycles: 138130548 heartbeat IPC: 0.425514 cumulative IPC: 0.548933 (Simulation time: 2 hr 14 min 58 sec) 
Heartbeat CPU 0 instructions: 85000001 cycles: 139764077 heartbeat IPC: 0.612172 cumulative IPC: 0.549691 (Simulation time: 2 hr 16 min 20 sec) 
Heartbeat CPU 0 instructions: 86000000 cycles: 141287076 heartbeat IPC: 0.656599 cumulative IPC: 0.550871 (Simulation time: 2 hr 17 min 37 sec) 
Heartbeat CPU 0 instructions: 87000003 cycles: 142797004 heartbeat IPC: 0.662285 cumulative IPC: 0.552077 (Simulation time: 2 hr 18 min 57 sec) 
Heartbeat CPU 0 instructions: 88000000 cycles: 144306996 heartbeat IPC: 0.662253 cumulative IPC: 0.553257 (Simulation time: 2 hr 20 min 16 sec) 
Heartbeat CPU 0 instructions: 89000001 cycles: 145817043 heartbeat IPC: 0.662232 cumulative IPC: 0.554412 (Simulation time: 2 hr 21 min 35 sec) 
Heartbeat CPU 0 instructions: 90000000 cycles: 147327163 heartbeat IPC: 0.662198 cumulative IPC: 0.555542 (Simulation time: 2 hr 22 min 54 sec) 
Heartbeat CPU 0 instructions: 91000001 cycles: 148837086 heartbeat IPC: 0.662286 cumulative IPC: 0.55665 (Simulation time: 2 hr 24 min 7 sec) 
Heartbeat CPU 0 instructions: 92000000 cycles: 150347194 heartbeat IPC: 0.662204 cumulative IPC: 0.557734 (Simulation time: 2 hr 25 min 19 sec) 
Heartbeat CPU 0 instructions: 93000002 cycles: 151857348 heartbeat IPC: 0.662185 cumulative IPC: 0.558796 (Simulation time: 2 hr 26 min 25 sec) 
Heartbeat CPU 0 instructions: 94000001 cycles: 153367268 heartbeat IPC: 0.662286 cumulative IPC: 0.559837 (Simulation time: 2 hr 27 min 29 sec) 
Heartbeat CPU 0 instructions: 95000000 cycles: 154877192 heartbeat IPC: 0.662284 cumulative IPC: 0.560858 (Simulation time: 2 hr 28 min 30 sec) 
Heartbeat CPU 0 instructions: 96000000 cycles: 156387186 heartbeat IPC: 0.662254 cumulative IPC: 0.561858 (Simulation time: 2 hr 29 min 31 sec) 
Heartbeat CPU 0 instructions: 97000002 cycles: 157894258 heartbeat IPC: 0.66354 cumulative IPC: 0.56285 (Simulation time: 2 hr 30 min 30 sec) 
Heartbeat CPU 0 instructions: 98000001 cycles: 159359381 heartbeat IPC: 0.682536 cumulative IPC: 0.563973 (Simulation time: 2 hr 31 min 23 sec) 
Heartbeat CPU 0 instructions: 99000000 cycles: 160869859 heartbeat IPC: 0.662041 cumulative IPC: 0.564914 (Simulation time: 2 hr 32 min 12 sec) 
Heartbeat CPU 0 instructions: 100000000 cycles: 162379780 heartbeat IPC: 0.662286 cumulative IPC: 0.565838 (Simulation time: 2 hr 33 min 5 sec) 
Heartbeat CPU 0 instructions: 101000000 cycles: 163889825 heartbeat IPC: 0.662232 cumulative IPC: 0.566745 (Simulation time: 2 hr 34 min 1 sec) 
Heartbeat CPU 0 instructions: 102000002 cycles: 165399748 heartbeat IPC: 0.662287 cumulative IPC: 0.567635 (Simulation time: 2 hr 34 min 46 sec) 
Heartbeat CPU 0 instructions: 103000001 cycles: 166908218 heartbeat IPC: 0.662923 cumulative IPC: 0.568513 (Simulation time: 2 hr 35 min 31 sec) 
Heartbeat CPU 0 instructions: 104000000 cycles: 168648015 heartbeat IPC: 0.574779 cumulative IPC: 0.568579 (Simulation time: 2 hr 36 min 19 sec) 
Heartbeat CPU 0 instructions: 105000000 cycles: 170991313 heartbeat IPC: 0.426749 cumulative IPC: 0.566597 (Simulation time: 2 hr 37 min 22 sec) 
Heartbeat CPU 0 instructions: 106000000 cycles: 173344009 heartbeat IPC: 0.425044 cumulative IPC: 0.564638 (Simulation time: 2 hr 38 min 21 sec) 
Heartbeat CPU 0 instructions: 107000000 cycles: 175700982 heartbeat IPC: 0.424273 cumulative IPC: 0.562719 (Simulation time: 2 hr 39 min 17 sec) 
Heartbeat CPU 0 instructions: 108000000 cycles: 178060857 heartbeat IPC: 0.423751 cumulative IPC: 0.560842 (Simulation time: 2 hr 40 min 17 sec) 
Heartbeat CPU 0 instructions: 109000000 cycles: 180409088 heartbeat IPC: 0.425852 cumulative IPC: 0.559052 (Simulation time: 2 hr 41 min 5 sec) 
Heartbeat CPU 0 instructions: 110000000 cycles: 182742919 heartbeat IPC: 0.42848 cumulative IPC: 0.557354 (Simulation time: 2 hr 41 min 53 sec) 
Finished CPU 0 instructions: 100000003 cycles: 179419236 cummulative IPC: 0.557354 (Simulation time: 2 hr 41 min 53 sec) 

ChampSim completed all CPUs

Region of Interest Statistics

CPU 0 cummulative IPC: 0.557354 instructions: 100000003 cycles: 179419236
LLC TOTAL     ACCESS:    4917133  HIT:     277639  MISS:    4639494
LLC LOAD      ACCESS:    1164536  HIT:      63005  MISS:    1101531
LLC RFO       ACCESS:         24  HIT:         24  MISS:          0
LLC PREFETCH  ACCESS:    2225875  HIT:      92433  MISS:    2133442
LLC WRITEBACK ACCESS:    1526698  HIT:     122177  MISS:    1404521
Insertion Distribution: 
	LOAD 1489 0 0 0 0 0 0 0 0 0 0 0 0 0 0 0 0 0 0 0 0 0 0 0 0 0 0 0 0 0 11746 1092644 
	RFO 0 0 0 0 0 0 0 0 0 0 0 0 0 0 0 0 0 0 0 0 0 0 0 0 0 0 0 0 0 0 4 0 
	PREF 0 20674 0 0 0 0 0 0 0 0 0 0 0 0 0 0 0 0 0 0 0 0 0 0 0 0 0 0 0 0 58926 2326492 
	WRITEBACK 0 0 0 0 0 0 0 0 0 0 0 0 0 0 0 0 0 0 0 0 0 0 0 0 0 0 0 0 0 0 0 1417584 
Total Prefetch Downgrades: 38984
