
*** ChampSim Multicore Out-of-Order Simulator ***

Warmup Instructions: 10000000
Simulation Instructions: 100000000
Configuration: 2
Number of CPUs: 1
LLC sets: 2048
LLC ways: 16
Off-chip DRAM Channels: 1 Width: 64-bit Data Rate: 1600 MT/s

CPU 0 runs /datasets/cs240c-wi22-a00-public/data/Assignment2-gz/bzip2_259B.trace.gz
CPU 0 L1D next line prefetcher
CPU 0 L2C IP-based stride prefetcher
Initialize SRRIP state
Heartbeat CPU 0 instructions: 1000002 cycles: 428875 heartbeat IPC: 2.33169 cumulative IPC: 2.33169 (Simulation time: 0 hr 1 min 41 sec) 
Heartbeat CPU 0 instructions: 2000003 cycles: 861057 heartbeat IPC: 2.31384 cumulative IPC: 2.32273 (Simulation time: 0 hr 3 min 24 sec) 
Heartbeat CPU 0 instructions: 3000001 cycles: 1286790 heartbeat IPC: 2.34889 cumulative IPC: 2.33138 (Simulation time: 0 hr 5 min 5 sec) 
Heartbeat CPU 0 instructions: 4000000 cycles: 1685062 heartbeat IPC: 2.51084 cumulative IPC: 2.3738 (Simulation time: 0 hr 6 min 35 sec) 
Heartbeat CPU 0 instructions: 5000001 cycles: 2103495 heartbeat IPC: 2.38987 cumulative IPC: 2.377 (Simulation time: 0 hr 8 min 10 sec) 
Heartbeat CPU 0 instructions: 6000001 cycles: 2532858 heartbeat IPC: 2.32903 cumulative IPC: 2.36887 (Simulation time: 0 hr 9 min 51 sec) 
Heartbeat CPU 0 instructions: 7000003 cycles: 2961906 heartbeat IPC: 2.33075 cumulative IPC: 2.36334 (Simulation time: 0 hr 11 min 35 sec) 
Heartbeat CPU 0 instructions: 8000000 cycles: 3391719 heartbeat IPC: 2.32659 cumulative IPC: 2.35869 (Simulation time: 0 hr 13 min 15 sec) 
Heartbeat CPU 0 instructions: 9000000 cycles: 3819845 heartbeat IPC: 2.33576 cumulative IPC: 2.35612 (Simulation time: 0 hr 14 min 58 sec) 
Heartbeat CPU 0 instructions: 10000002 cycles: 4193917 heartbeat IPC: 2.67329 cumulative IPC: 2.38441 (Simulation time: 0 hr 16 min 25 sec) 

Warmup complete CPU 0 instructions: 10000002 cycles: 4193917 (Simulation time: 0 hr 16 min 25 sec) 

Heartbeat CPU 0 instructions: 11000002 cycles: 5034789 heartbeat IPC: 1.18924 cumulative IPC: 1.18924 (Simulation time: 0 hr 18 min 4 sec) 
Heartbeat CPU 0 instructions: 12000000 cycles: 6140435 heartbeat IPC: 0.904447 cumulative IPC: 1.02747 (Simulation time: 0 hr 20 min 1 sec) 
Heartbeat CPU 0 instructions: 13000002 cycles: 7084320 heartbeat IPC: 1.05945 cumulative IPC: 1.03792 (Simulation time: 0 hr 21 min 49 sec) 
Heartbeat CPU 0 instructions: 14000003 cycles: 7999066 heartbeat IPC: 1.0932 cumulative IPC: 1.05121 (Simulation time: 0 hr 23 min 42 sec) 
Heartbeat CPU 0 instructions: 15000002 cycles: 9024146 heartbeat IPC: 0.975533 cumulative IPC: 1.03515 (Simulation time: 0 hr 25 min 46 sec) 
Heartbeat CPU 0 instructions: 16000000 cycles: 10024490 heartbeat IPC: 0.999654 cumulative IPC: 1.02906 (Simulation time: 0 hr 27 min 35 sec) 
Heartbeat CPU 0 instructions: 17000002 cycles: 11145519 heartbeat IPC: 0.892039 cumulative IPC: 1.00696 (Simulation time: 0 hr 29 min 37 sec) 
Heartbeat CPU 0 instructions: 18000001 cycles: 12239319 heartbeat IPC: 0.914243 cumulative IPC: 0.994357 (Simulation time: 0 hr 31 min 27 sec) 
Heartbeat CPU 0 instructions: 19000003 cycles: 13210100 heartbeat IPC: 1.0301 cumulative IPC: 0.998205 (Simulation time: 0 hr 33 min 7 sec) 
Heartbeat CPU 0 instructions: 20000000 cycles: 14219626 heartbeat IPC: 0.990561 cumulative IPC: 0.997436 (Simulation time: 0 hr 34 min 37 sec) 
Heartbeat CPU 0 instructions: 21000001 cycles: 15125470 heartbeat IPC: 1.10394 cumulative IPC: 1.00626 (Simulation time: 0 hr 36 min 6 sec) 
Heartbeat CPU 0 instructions: 22000001 cycles: 16037375 heartbeat IPC: 1.09661 cumulative IPC: 1.01322 (Simulation time: 0 hr 37 min 52 sec) 
Heartbeat CPU 0 instructions: 23000002 cycles: 16942292 heartbeat IPC: 1.10507 cumulative IPC: 1.01974 (Simulation time: 0 hr 39 min 33 sec) 
Heartbeat CPU 0 instructions: 24000000 cycles: 17844698 heartbeat IPC: 1.10815 cumulative IPC: 1.02558 (Simulation time: 0 hr 41 min 14 sec) 
Heartbeat CPU 0 instructions: 25000000 cycles: 18745247 heartbeat IPC: 1.11043 cumulative IPC: 1.03083 (Simulation time: 0 hr 42 min 54 sec) 
Heartbeat CPU 0 instructions: 26000000 cycles: 19673312 heartbeat IPC: 1.07751 cumulative IPC: 1.03363 (Simulation time: 0 hr 44 min 31 sec) 
Heartbeat CPU 0 instructions: 27000003 cycles: 20609379 heartbeat IPC: 1.0683 cumulative IPC: 1.03561 (Simulation time: 0 hr 46 min 6 sec) 
Heartbeat CPU 0 instructions: 28000000 cycles: 21522338 heartbeat IPC: 1.09534 cumulative IPC: 1.03876 (Simulation time: 0 hr 47 min 43 sec) 
Heartbeat CPU 0 instructions: 29000000 cycles: 22428250 heartbeat IPC: 1.10386 cumulative IPC: 1.04199 (Simulation time: 0 hr 49 min 13 sec) 
Heartbeat CPU 0 instructions: 30000000 cycles: 23385833 heartbeat IPC: 1.0443 cumulative IPC: 1.04211 (Simulation time: 0 hr 50 min 57 sec) 
Heartbeat CPU 0 instructions: 31000001 cycles: 24287766 heartbeat IPC: 1.10873 cumulative IPC: 1.0451 (Simulation time: 0 hr 52 min 36 sec) 
Heartbeat CPU 0 instructions: 32000000 cycles: 25179971 heartbeat IPC: 1.12082 cumulative IPC: 1.04832 (Simulation time: 0 hr 54 min 8 sec) 
Heartbeat CPU 0 instructions: 33000002 cycles: 26292614 heartbeat IPC: 0.898763 cumulative IPC: 1.04079 (Simulation time: 0 hr 55 min 51 sec) 
Heartbeat CPU 0 instructions: 34000003 cycles: 27499407 heartbeat IPC: 0.828643 cumulative IPC: 1.0298 (Simulation time: 0 hr 57 min 33 sec) 
Heartbeat CPU 0 instructions: 35000001 cycles: 28547883 heartbeat IPC: 0.953763 cumulative IPC: 1.02653 (Simulation time: 0 hr 59 min 13 sec) 
Heartbeat CPU 0 instructions: 36000000 cycles: 29724993 heartbeat IPC: 0.849537 cumulative IPC: 1.01837 (Simulation time: 1 hr 0 min 44 sec) 
Heartbeat CPU 0 instructions: 37000002 cycles: 30768004 heartbeat IPC: 0.958765 cumulative IPC: 1.01603 (Simulation time: 1 hr 2 min 10 sec) 
Heartbeat CPU 0 instructions: 38000003 cycles: 31882978 heartbeat IPC: 0.896883 cumulative IPC: 1.01123 (Simulation time: 1 hr 3 min 41 sec) 
Heartbeat CPU 0 instructions: 39000001 cycles: 33026954 heartbeat IPC: 0.874142 cumulative IPC: 1.00579 (Simulation time: 1 hr 5 min 15 sec) 
Heartbeat CPU 0 instructions: 40000000 cycles: 34096247 heartbeat IPC: 0.935196 cumulative IPC: 1.00327 (Simulation time: 1 hr 6 min 42 sec) 
Heartbeat CPU 0 instructions: 41000001 cycles: 35285915 heartbeat IPC: 0.840571 cumulative IPC: 0.997041 (Simulation time: 1 hr 8 min 4 sec) 
Heartbeat CPU 0 instructions: 42000000 cycles: 36495149 heartbeat IPC: 0.826969 cumulative IPC: 0.990674 (Simulation time: 1 hr 9 min 41 sec) 
Heartbeat CPU 0 instructions: 43000003 cycles: 37711657 heartbeat IPC: 0.822028 cumulative IPC: 0.984553 (Simulation time: 1 hr 11 min 15 sec) 
Heartbeat CPU 0 instructions: 44000000 cycles: 38925023 heartbeat IPC: 0.824151 cumulative IPC: 0.978949 (Simulation time: 1 hr 12 min 49 sec) 
Heartbeat CPU 0 instructions: 45000000 cycles: 40146764 heartbeat IPC: 0.818504 cumulative IPC: 0.973497 (Simulation time: 1 hr 14 min 14 sec) 
Heartbeat CPU 0 instructions: 46000002 cycles: 41385376 heartbeat IPC: 0.807357 cumulative IPC: 0.967964 (Simulation time: 1 hr 15 min 45 sec) 
Heartbeat CPU 0 instructions: 47000000 cycles: 42615462 heartbeat IPC: 0.81295 cumulative IPC: 0.963001 (Simulation time: 1 hr 17 min 12 sec) 
Heartbeat CPU 0 instructions: 48000000 cycles: 43853641 heartbeat IPC: 0.807638 cumulative IPC: 0.958151 (Simulation time: 1 hr 18 min 39 sec) 
Heartbeat CPU 0 instructions: 49000003 cycles: 45122700 heartbeat IPC: 0.787988 cumulative IPC: 0.952875 (Simulation time: 1 hr 20 min 8 sec) 
Heartbeat CPU 0 instructions: 50000001 cycles: 46161901 heartbeat IPC: 0.962276 cumulative IPC: 0.953107 (Simulation time: 1 hr 21 min 44 sec) 
Heartbeat CPU 0 instructions: 51000002 cycles: 47326957 heartbeat IPC: 0.858329 cumulative IPC: 0.950547 (Simulation time: 1 hr 23 min 14 sec) 
Heartbeat CPU 0 instructions: 52000000 cycles: 48445114 heartbeat IPC: 0.894327 cumulative IPC: 0.949127 (Simulation time: 1 hr 24 min 49 sec) 
Heartbeat CPU 0 instructions: 53000001 cycles: 49641161 heartbeat IPC: 0.836088 cumulative IPC: 0.946152 (Simulation time: 1 hr 26 min 24 sec) 
Heartbeat CPU 0 instructions: 54000000 cycles: 50867881 heartbeat IPC: 0.815181 cumulative IPC: 0.94271 (Simulation time: 1 hr 27 min 51 sec) 
Heartbeat CPU 0 instructions: 55000000 cycles: 52019489 heartbeat IPC: 0.868351 cumulative IPC: 0.940919 (Simulation time: 1 hr 29 min 17 sec) 
Heartbeat CPU 0 instructions: 56000000 cycles: 53244144 heartbeat IPC: 0.816557 cumulative IPC: 0.937814 (Simulation time: 1 hr 30 min 46 sec) 
Heartbeat CPU 0 instructions: 57000000 cycles: 54465193 heartbeat IPC: 0.818968 cumulative IPC: 0.934927 (Simulation time: 1 hr 32 min 13 sec) 
Heartbeat CPU 0 instructions: 58000002 cycles: 55497265 heartbeat IPC: 0.968927 cumulative IPC: 0.935611 (Simulation time: 1 hr 33 min 39 sec) 
Heartbeat CPU 0 instructions: 59000000 cycles: 56598166 heartbeat IPC: 0.908345 cumulative IPC: 0.935039 (Simulation time: 1 hr 35 min 0 sec) 
Heartbeat CPU 0 instructions: 60000000 cycles: 57778339 heartbeat IPC: 0.847333 cumulative IPC: 0.933107 (Simulation time: 1 hr 36 min 21 sec) 
Heartbeat CPU 0 instructions: 61000000 cycles: 58923038 heartbeat IPC: 0.873592 cumulative IPC: 0.931862 (Simulation time: 1 hr 37 min 49 sec) 
Heartbeat CPU 0 instructions: 62000002 cycles: 59767316 heartbeat IPC: 1.18445 cumulative IPC: 0.935699 (Simulation time: 1 hr 39 min 21 sec) 
Heartbeat CPU 0 instructions: 63000003 cycles: 60668642 heartbeat IPC: 1.10948 cumulative IPC: 0.938473 (Simulation time: 1 hr 41 min 7 sec) 
Heartbeat CPU 0 instructions: 64000000 cycles: 61726548 heartbeat IPC: 0.945261 cumulative IPC: 0.938598 (Simulation time: 1 hr 43 min 1 sec) 
Heartbeat CPU 0 instructions: 65000003 cycles: 62708347 heartbeat IPC: 1.01854 cumulative IPC: 0.939939 (Simulation time: 1 hr 44 min 56 sec) 
Heartbeat CPU 0 instructions: 66000003 cycles: 63655406 heartbeat IPC: 1.0559 cumulative IPC: 0.941786 (Simulation time: 1 hr 46 min 45 sec) 
Heartbeat CPU 0 instructions: 67000003 cycles: 64704492 heartbeat IPC: 0.953211 cumulative IPC: 0.941984 (Simulation time: 1 hr 48 min 32 sec) 
Heartbeat CPU 0 instructions: 68000000 cycles: 65775644 heartbeat IPC: 0.933572 cumulative IPC: 0.941838 (Simulation time: 1 hr 50 min 20 sec) 
Heartbeat CPU 0 instructions: 69000003 cycles: 66881637 heartbeat IPC: 0.904168 cumulative IPC: 0.941173 (Simulation time: 1 hr 52 min 9 sec) 
Heartbeat CPU 0 instructions: 70000003 cycles: 68122139 heartbeat IPC: 0.806125 cumulative IPC: 0.938553 (Simulation time: 1 hr 53 min 58 sec) 
Heartbeat CPU 0 instructions: 71000000 cycles: 69424958 heartbeat IPC: 0.767564 cumulative IPC: 0.935138 (Simulation time: 1 hr 55 min 48 sec) 
Heartbeat CPU 0 instructions: 72000000 cycles: 70590185 heartbeat IPC: 0.858202 cumulative IPC: 0.933787 (Simulation time: 1 hr 57 min 28 sec) 
Heartbeat CPU 0 instructions: 73000003 cycles: 71876310 heartbeat IPC: 0.777532 cumulative IPC: 0.930818 (Simulation time: 1 hr 59 min 14 sec) 
Heartbeat CPU 0 instructions: 74000001 cycles: 73104462 heartbeat IPC: 0.81423 cumulative IPC: 0.92874 (Simulation time: 2 hr 0 min 57 sec) 
Heartbeat CPU 0 instructions: 75000000 cycles: 74256920 heartbeat IPC: 0.86771 cumulative IPC: 0.927736 (Simulation time: 2 hr 2 min 29 sec) 
Heartbeat CPU 0 instructions: 76000000 cycles: 75330410 heartbeat IPC: 0.931541 cumulative IPC: 0.927794 (Simulation time: 2 hr 4 min 2 sec) 
Heartbeat CPU 0 instructions: 77000003 cycles: 76288621 heartbeat IPC: 1.04361 cumulative IPC: 0.929333 (Simulation time: 2 hr 5 min 27 sec) 
Heartbeat CPU 0 instructions: 78000000 cycles: 77245950 heartbeat IPC: 1.04457 cumulative IPC: 0.930843 (Simulation time: 2 hr 6 min 45 sec) 
Heartbeat CPU 0 instructions: 79000003 cycles: 78313264 heartbeat IPC: 0.936934 cumulative IPC: 0.930931 (Simulation time: 2 hr 8 min 1 sec) 
Heartbeat CPU 0 instructions: 80000000 cycles: 79535941 heartbeat IPC: 0.817875 cumulative IPC: 0.929096 (Simulation time: 2 hr 9 min 22 sec) 
Heartbeat CPU 0 instructions: 81000001 cycles: 80698192 heartbeat IPC: 0.8604 cumulative IPC: 0.928053 (Simulation time: 2 hr 10 min 46 sec) 
Heartbeat CPU 0 instructions: 82000000 cycles: 81808703 heartbeat IPC: 0.900485 cumulative IPC: 0.927658 (Simulation time: 2 hr 12 min 7 sec) 
Heartbeat CPU 0 instructions: 83000002 cycles: 82862983 heartbeat IPC: 0.948517 cumulative IPC: 0.927938 (Simulation time: 2 hr 13 min 32 sec) 
Heartbeat CPU 0 instructions: 84000000 cycles: 83804587 heartbeat IPC: 1.06202 cumulative IPC: 0.929524 (Simulation time: 2 hr 14 min 53 sec) 
Heartbeat CPU 0 instructions: 85000003 cycles: 84747020 heartbeat IPC: 1.06109 cumulative IPC: 0.931063 (Simulation time: 2 hr 16 min 6 sec) 
Heartbeat CPU 0 instructions: 86000003 cycles: 85787460 heartbeat IPC: 0.961132 cumulative IPC: 0.931446 (Simulation time: 2 hr 17 min 20 sec) 
Heartbeat CPU 0 instructions: 87000002 cycles: 86846833 heartbeat IPC: 0.943954 cumulative IPC: 0.931607 (Simulation time: 2 hr 18 min 35 sec) 
Heartbeat CPU 0 instructions: 88000000 cycles: 87949494 heartbeat IPC: 0.906895 cumulative IPC: 0.931281 (Simulation time: 2 hr 19 min 48 sec) 
Heartbeat CPU 0 instructions: 89000002 cycles: 88956047 heartbeat IPC: 0.993492 cumulative IPC: 0.93202 (Simulation time: 2 hr 20 min 54 sec) 
Heartbeat CPU 0 instructions: 90000001 cycles: 90079198 heartbeat IPC: 0.890351 cumulative IPC: 0.931475 (Simulation time: 2 hr 22 min 0 sec) 
Heartbeat CPU 0 instructions: 91000002 cycles: 91192771 heartbeat IPC: 0.898011 cumulative IPC: 0.931047 (Simulation time: 2 hr 23 min 6 sec) 
Heartbeat CPU 0 instructions: 92000000 cycles: 92231560 heartbeat IPC: 0.962657 cumulative IPC: 0.93142 (Simulation time: 2 hr 24 min 13 sec) 
Heartbeat CPU 0 instructions: 93000000 cycles: 93419813 heartbeat IPC: 0.841572 cumulative IPC: 0.930223 (Simulation time: 2 hr 25 min 18 sec) 
Heartbeat CPU 0 instructions: 94000003 cycles: 94596010 heartbeat IPC: 0.8502 cumulative IPC: 0.929182 (Simulation time: 2 hr 26 min 16 sec) 
Heartbeat CPU 0 instructions: 95000002 cycles: 95781023 heartbeat IPC: 0.843872 cumulative IPC: 0.928078 (Simulation time: 2 hr 27 min 10 sec) 
Heartbeat CPU 0 instructions: 96000000 cycles: 96951470 heartbeat IPC: 0.854373 cumulative IPC: 0.927148 (Simulation time: 2 hr 28 min 2 sec) 
Heartbeat CPU 0 instructions: 97000002 cycles: 98168386 heartbeat IPC: 0.821751 cumulative IPC: 0.925783 (Simulation time: 2 hr 28 min 50 sec) 
Heartbeat CPU 0 instructions: 98000000 cycles: 99402416 heartbeat IPC: 0.810351 cumulative IPC: 0.924287 (Simulation time: 2 hr 29 min 41 sec) 
Heartbeat CPU 0 instructions: 99000000 cycles: 100642570 heartbeat IPC: 0.806351 cumulative IPC: 0.922771 (Simulation time: 2 hr 30 min 29 sec) 
Heartbeat CPU 0 instructions: 100000000 cycles: 101884631 heartbeat IPC: 0.805113 cumulative IPC: 0.921275 (Simulation time: 2 hr 31 min 9 sec) 
Heartbeat CPU 0 instructions: 101000003 cycles: 103032603 heartbeat IPC: 0.871104 cumulative IPC: 0.920692 (Simulation time: 2 hr 31 min 50 sec) 
Heartbeat CPU 0 instructions: 102000000 cycles: 104152431 heartbeat IPC: 0.892992 cumulative IPC: 0.920382 (Simulation time: 2 hr 32 min 32 sec) 
Heartbeat CPU 0 instructions: 103000000 cycles: 105253786 heartbeat IPC: 0.907972 cumulative IPC: 0.920247 (Simulation time: 2 hr 33 min 13 sec) 
Heartbeat CPU 0 instructions: 104000000 cycles: 106406940 heartbeat IPC: 0.867187 cumulative IPC: 0.919648 (Simulation time: 2 hr 34 min 1 sec) 
Heartbeat CPU 0 instructions: 105000002 cycles: 107618146 heartbeat IPC: 0.825625 cumulative IPC: 0.918547 (Simulation time: 2 hr 34 min 42 sec) 
Heartbeat CPU 0 instructions: 106000001 cycles: 108751704 heartbeat IPC: 0.882177 cumulative IPC: 0.918153 (Simulation time: 2 hr 35 min 22 sec) 
Heartbeat CPU 0 instructions: 107000000 cycles: 109955028 heartbeat IPC: 0.831031 cumulative IPC: 0.917161 (Simulation time: 2 hr 36 min 2 sec) 
Heartbeat CPU 0 instructions: 108000000 cycles: 111153362 heartbeat IPC: 0.834492 cumulative IPC: 0.916235 (Simulation time: 2 hr 36 min 41 sec) 
Heartbeat CPU 0 instructions: 109000000 cycles: 112165709 heartbeat IPC: 0.987804 cumulative IPC: 0.916906 (Simulation time: 2 hr 37 min 20 sec) 
Heartbeat CPU 0 instructions: 110000000 cycles: 113326950 heartbeat IPC: 0.861148 cumulative IPC: 0.916313 (Simulation time: 2 hr 37 min 55 sec) 
Finished CPU 0 instructions: 100000002 cycles: 109133035 cummulative IPC: 0.916313 (Simulation time: 2 hr 37 min 55 sec) 

ChampSim completed all CPUs

Region of Interest Statistics

CPU 0 cummulative IPC: 0.916313 instructions: 100000002 cycles: 109133035
LLC TOTAL     ACCESS:    1373534  HIT:    1066700  MISS:     306834
LLC LOAD      ACCESS:     396207  HIT:     350561  MISS:      45646
LLC RFO       ACCESS:     104383  HIT:      44605  MISS:      59778
LLC PREFETCH  ACCESS:     675963  HIT:     514491  MISS:     161472
LLC WRITEBACK ACCESS:     196981  HIT:     157043  MISS:      39938
Insertion Distribution: 
	LOAD 35776 0 0 0 0 0 0 0 0 0 0 0 0 0 0 0 0 0 0 0 0 0 0 0 0 0 0 0 0 0 9341 675 
	RFO 12996 0 0 0 0 0 0 0 0 0 0 0 0 0 0 0 0 0 0 0 0 0 0 0 0 0 0 0 0 0 27186 35550 
	PREF 0 14775 0 0 0 0 0 0 0 0 0 0 0 0 0 0 0 0 0 0 0 0 0 0 0 0 0 0 0 0 52223 94954 
	WRITEBACK 0 0 0 0 0 0 0 0 0 0 0 0 0 0 0 0 0 0 0 0 0 0 0 0 0 0 0 0 0 0 0 39942 
Total Prefetch Downgrades: 27112
