
*** ChampSim Multicore Out-of-Order Simulator ***

Warmup Instructions: 10000000
Simulation Instructions: 100000000
Configuration: 2
Number of CPUs: 1
LLC sets: 2048
LLC ways: 16
Off-chip DRAM Channels: 1 Width: 64-bit Data Rate: 1600 MT/s

CPU 0 runs /datasets/cs240c-wi22-a00-public/data/Assignment2-gz/zeusmp_100B.trace.gz
CPU 0 L1D next line prefetcher
CPU 0 L2C IP-based stride prefetcher
Initialize SRRIP state
Heartbeat CPU 0 instructions: 1000002 cycles: 462677 heartbeat IPC: 2.16134 cumulative IPC: 2.16134 (Simulation time: 0 hr 1 min 19 sec) 
Heartbeat CPU 0 instructions: 2000001 cycles: 925467 heartbeat IPC: 2.16081 cumulative IPC: 2.16107 (Simulation time: 0 hr 2 min 39 sec) 
Heartbeat CPU 0 instructions: 3000003 cycles: 1388524 heartbeat IPC: 2.15957 cumulative IPC: 2.16057 (Simulation time: 0 hr 4 min 4 sec) 
Heartbeat CPU 0 instructions: 4000000 cycles: 1851251 heartbeat IPC: 2.16109 cumulative IPC: 2.1607 (Simulation time: 0 hr 5 min 28 sec) 
Heartbeat CPU 0 instructions: 5000003 cycles: 2314193 heartbeat IPC: 2.1601 cumulative IPC: 2.16058 (Simulation time: 0 hr 6 min 50 sec) 
Heartbeat CPU 0 instructions: 6000001 cycles: 2777071 heartbeat IPC: 2.16039 cumulative IPC: 2.16055 (Simulation time: 0 hr 8 min 8 sec) 
Heartbeat CPU 0 instructions: 7000001 cycles: 3239757 heartbeat IPC: 2.16129 cumulative IPC: 2.16066 (Simulation time: 0 hr 9 min 29 sec) 
Heartbeat CPU 0 instructions: 8000000 cycles: 3702614 heartbeat IPC: 2.16049 cumulative IPC: 2.16064 (Simulation time: 0 hr 10 min 48 sec) 
Heartbeat CPU 0 instructions: 9000003 cycles: 4165382 heartbeat IPC: 2.16092 cumulative IPC: 2.16067 (Simulation time: 0 hr 12 min 1 sec) 
Heartbeat CPU 0 instructions: 10000001 cycles: 4628718 heartbeat IPC: 2.15826 cumulative IPC: 2.16043 (Simulation time: 0 hr 13 min 15 sec) 

Warmup complete CPU 0 instructions: 10000001 cycles: 4628718 (Simulation time: 0 hr 13 min 15 sec) 

Heartbeat CPU 0 instructions: 11000000 cycles: 5336761 heartbeat IPC: 1.41234 cumulative IPC: 1.41234 (Simulation time: 0 hr 14 min 38 sec) 
Heartbeat CPU 0 instructions: 12000000 cycles: 6042232 heartbeat IPC: 1.41749 cumulative IPC: 1.41491 (Simulation time: 0 hr 16 min 6 sec) 
Heartbeat CPU 0 instructions: 13000001 cycles: 6761772 heartbeat IPC: 1.38978 cumulative IPC: 1.40643 (Simulation time: 0 hr 17 min 36 sec) 
Heartbeat CPU 0 instructions: 14000003 cycles: 7487523 heartbeat IPC: 1.37789 cumulative IPC: 1.39919 (Simulation time: 0 hr 18 min 54 sec) 
Heartbeat CPU 0 instructions: 15000002 cycles: 8205404 heartbeat IPC: 1.39299 cumulative IPC: 1.39794 (Simulation time: 0 hr 20 min 18 sec) 
Heartbeat CPU 0 instructions: 16000000 cycles: 8909836 heartbeat IPC: 1.41958 cumulative IPC: 1.4015 (Simulation time: 0 hr 21 min 39 sec) 
Heartbeat CPU 0 instructions: 17000003 cycles: 9688371 heartbeat IPC: 1.28447 cumulative IPC: 1.38349 (Simulation time: 0 hr 23 min 0 sec) 
Heartbeat CPU 0 instructions: 18000000 cycles: 10383876 heartbeat IPC: 1.4378 cumulative IPC: 1.39006 (Simulation time: 0 hr 24 min 26 sec) 
Heartbeat CPU 0 instructions: 19000002 cycles: 11079169 heartbeat IPC: 1.43825 cumulative IPC: 1.39525 (Simulation time: 0 hr 25 min 50 sec) 
Heartbeat CPU 0 instructions: 20000000 cycles: 11767218 heartbeat IPC: 1.45338 cumulative IPC: 1.40085 (Simulation time: 0 hr 27 min 11 sec) 
Heartbeat CPU 0 instructions: 21000001 cycles: 12475446 heartbeat IPC: 1.41198 cumulative IPC: 1.40186 (Simulation time: 0 hr 28 min 37 sec) 
Heartbeat CPU 0 instructions: 22000001 cycles: 13169370 heartbeat IPC: 1.44108 cumulative IPC: 1.40504 (Simulation time: 0 hr 30 min 3 sec) 
Heartbeat CPU 0 instructions: 23000002 cycles: 13887453 heartbeat IPC: 1.3926 cumulative IPC: 1.40408 (Simulation time: 0 hr 31 min 31 sec) 
Heartbeat CPU 0 instructions: 24000000 cycles: 14585073 heartbeat IPC: 1.43344 cumulative IPC: 1.40614 (Simulation time: 0 hr 32 min 55 sec) 
Heartbeat CPU 0 instructions: 25000001 cycles: 15295580 heartbeat IPC: 1.40745 cumulative IPC: 1.40622 (Simulation time: 0 hr 34 min 15 sec) 
Heartbeat CPU 0 instructions: 26000001 cycles: 15991403 heartbeat IPC: 1.43715 cumulative IPC: 1.40812 (Simulation time: 0 hr 35 min 34 sec) 
Heartbeat CPU 0 instructions: 27000002 cycles: 16702574 heartbeat IPC: 1.40613 cumulative IPC: 1.408 (Simulation time: 0 hr 36 min 59 sec) 
Heartbeat CPU 0 instructions: 28000000 cycles: 17399858 heartbeat IPC: 1.43413 cumulative IPC: 1.40943 (Simulation time: 0 hr 38 min 24 sec) 
Heartbeat CPU 0 instructions: 29000000 cycles: 18096098 heartbeat IPC: 1.43629 cumulative IPC: 1.41082 (Simulation time: 0 hr 39 min 52 sec) 
Heartbeat CPU 0 instructions: 30000003 cycles: 18802974 heartbeat IPC: 1.41468 cumulative IPC: 1.41101 (Simulation time: 0 hr 41 min 17 sec) 
Heartbeat CPU 0 instructions: 31000000 cycles: 19497587 heartbeat IPC: 1.43965 cumulative IPC: 1.41235 (Simulation time: 0 hr 42 min 40 sec) 
Heartbeat CPU 0 instructions: 32000000 cycles: 20208742 heartbeat IPC: 1.40616 cumulative IPC: 1.41206 (Simulation time: 0 hr 44 min 4 sec) 
Heartbeat CPU 0 instructions: 33000002 cycles: 20903374 heartbeat IPC: 1.43961 cumulative IPC: 1.41324 (Simulation time: 0 hr 45 min 31 sec) 
Heartbeat CPU 0 instructions: 34000002 cycles: 21611000 heartbeat IPC: 1.41318 cumulative IPC: 1.41324 (Simulation time: 0 hr 46 min 54 sec) 
Heartbeat CPU 0 instructions: 35000003 cycles: 22309867 heartbeat IPC: 1.43089 cumulative IPC: 1.41394 (Simulation time: 0 hr 48 min 20 sec) 
Heartbeat CPU 0 instructions: 36000000 cycles: 23019574 heartbeat IPC: 1.40903 cumulative IPC: 1.41375 (Simulation time: 0 hr 49 min 48 sec) 
Heartbeat CPU 0 instructions: 37000001 cycles: 23718622 heartbeat IPC: 1.43052 cumulative IPC: 1.41436 (Simulation time: 0 hr 51 min 13 sec) 
Heartbeat CPU 0 instructions: 38000003 cycles: 24428099 heartbeat IPC: 1.40949 cumulative IPC: 1.41419 (Simulation time: 0 hr 52 min 40 sec) 
Heartbeat CPU 0 instructions: 39000001 cycles: 25127186 heartbeat IPC: 1.43043 cumulative IPC: 1.41474 (Simulation time: 0 hr 54 min 1 sec) 
Heartbeat CPU 0 instructions: 40000000 cycles: 25839769 heartbeat IPC: 1.40334 cumulative IPC: 1.41436 (Simulation time: 0 hr 55 min 27 sec) 
Heartbeat CPU 0 instructions: 41000000 cycles: 26538700 heartbeat IPC: 1.43076 cumulative IPC: 1.41488 (Simulation time: 0 hr 56 min 53 sec) 
Heartbeat CPU 0 instructions: 42000001 cycles: 27235549 heartbeat IPC: 1.43503 cumulative IPC: 1.4155 (Simulation time: 0 hr 58 min 18 sec) 
Heartbeat CPU 0 instructions: 43000003 cycles: 27945713 heartbeat IPC: 1.40813 cumulative IPC: 1.41528 (Simulation time: 0 hr 59 min 44 sec) 
Heartbeat CPU 0 instructions: 44000000 cycles: 28642013 heartbeat IPC: 1.43616 cumulative IPC: 1.41588 (Simulation time: 1 hr 1 min 15 sec) 
Heartbeat CPU 0 instructions: 45000001 cycles: 29351166 heartbeat IPC: 1.41013 cumulative IPC: 1.41572 (Simulation time: 1 hr 2 min 39 sec) 
Heartbeat CPU 0 instructions: 46000002 cycles: 30050666 heartbeat IPC: 1.42959 cumulative IPC: 1.4161 (Simulation time: 1 hr 4 min 3 sec) 
Heartbeat CPU 0 instructions: 47000003 cycles: 30761396 heartbeat IPC: 1.40701 cumulative IPC: 1.41585 (Simulation time: 1 hr 5 min 30 sec) 
Heartbeat CPU 0 instructions: 48000000 cycles: 31457315 heartbeat IPC: 1.43694 cumulative IPC: 1.4164 (Simulation time: 1 hr 6 min 53 sec) 
Heartbeat CPU 0 instructions: 49000001 cycles: 32166673 heartbeat IPC: 1.40973 cumulative IPC: 1.41623 (Simulation time: 1 hr 8 min 12 sec) 
Heartbeat CPU 0 instructions: 50000001 cycles: 32868188 heartbeat IPC: 1.42549 cumulative IPC: 1.41646 (Simulation time: 1 hr 9 min 37 sec) 
Heartbeat CPU 0 instructions: 51000002 cycles: 33577330 heartbeat IPC: 1.41016 cumulative IPC: 1.4163 (Simulation time: 1 hr 11 min 5 sec) 
Heartbeat CPU 0 instructions: 52000000 cycles: 34272834 heartbeat IPC: 1.4378 cumulative IPC: 1.41681 (Simulation time: 1 hr 12 min 31 sec) 
Heartbeat CPU 0 instructions: 53000001 cycles: 34983345 heartbeat IPC: 1.40744 cumulative IPC: 1.41659 (Simulation time: 1 hr 13 min 56 sec) 
Heartbeat CPU 0 instructions: 54000003 cycles: 35684622 heartbeat IPC: 1.42597 cumulative IPC: 1.4168 (Simulation time: 1 hr 15 min 26 sec) 
Heartbeat CPU 0 instructions: 55000003 cycles: 36387462 heartbeat IPC: 1.4228 cumulative IPC: 1.41693 (Simulation time: 1 hr 16 min 52 sec) 
Heartbeat CPU 0 instructions: 56000000 cycles: 37093699 heartbeat IPC: 1.41595 cumulative IPC: 1.41691 (Simulation time: 1 hr 18 min 12 sec) 
Heartbeat CPU 0 instructions: 57000003 cycles: 37790344 heartbeat IPC: 1.43546 cumulative IPC: 1.4173 (Simulation time: 1 hr 19 min 38 sec) 
Heartbeat CPU 0 instructions: 58000003 cycles: 38500561 heartbeat IPC: 1.40802 cumulative IPC: 1.41711 (Simulation time: 1 hr 21 min 0 sec) 
Heartbeat CPU 0 instructions: 59000000 cycles: 39200886 heartbeat IPC: 1.4279 cumulative IPC: 1.41733 (Simulation time: 1 hr 22 min 24 sec) 
Heartbeat CPU 0 instructions: 60000000 cycles: 39915424 heartbeat IPC: 1.39951 cumulative IPC: 1.41696 (Simulation time: 1 hr 23 min 49 sec) 
Heartbeat CPU 0 instructions: 61000000 cycles: 40615769 heartbeat IPC: 1.42787 cumulative IPC: 1.41718 (Simulation time: 1 hr 25 min 14 sec) 
Heartbeat CPU 0 instructions: 62000001 cycles: 41328951 heartbeat IPC: 1.40217 cumulative IPC: 1.41688 (Simulation time: 1 hr 26 min 34 sec) 
Heartbeat CPU 0 instructions: 63000001 cycles: 42027012 heartbeat IPC: 1.43254 cumulative IPC: 1.41718 (Simulation time: 1 hr 27 min 53 sec) 
Heartbeat CPU 0 instructions: 64000000 cycles: 42740308 heartbeat IPC: 1.40194 cumulative IPC: 1.41689 (Simulation time: 1 hr 29 min 18 sec) 
Heartbeat CPU 0 instructions: 65000003 cycles: 43438271 heartbeat IPC: 1.43274 cumulative IPC: 1.41718 (Simulation time: 1 hr 30 min 38 sec) 
Heartbeat CPU 0 instructions: 66000003 cycles: 44148387 heartbeat IPC: 1.40822 cumulative IPC: 1.41702 (Simulation time: 1 hr 31 min 58 sec) 
Heartbeat CPU 0 instructions: 67000000 cycles: 44846284 heartbeat IPC: 1.43287 cumulative IPC: 1.41729 (Simulation time: 1 hr 33 min 22 sec) 
Heartbeat CPU 0 instructions: 68000000 cycles: 45553346 heartbeat IPC: 1.4143 cumulative IPC: 1.41724 (Simulation time: 1 hr 34 min 45 sec) 
Heartbeat CPU 0 instructions: 69000000 cycles: 46252099 heartbeat IPC: 1.43112 cumulative IPC: 1.41747 (Simulation time: 1 hr 36 min 6 sec) 
Heartbeat CPU 0 instructions: 70000003 cycles: 46945572 heartbeat IPC: 1.44202 cumulative IPC: 1.41787 (Simulation time: 1 hr 37 min 29 sec) 
Heartbeat CPU 0 instructions: 71000003 cycles: 47654120 heartbeat IPC: 1.41134 cumulative IPC: 1.41777 (Simulation time: 1 hr 38 min 57 sec) 
Heartbeat CPU 0 instructions: 72000000 cycles: 48352692 heartbeat IPC: 1.43149 cumulative IPC: 1.41799 (Simulation time: 1 hr 40 min 22 sec) 
Heartbeat CPU 0 instructions: 73000002 cycles: 49063824 heartbeat IPC: 1.40621 cumulative IPC: 1.4178 (Simulation time: 1 hr 41 min 45 sec) 
Heartbeat CPU 0 instructions: 74000003 cycles: 49760704 heartbeat IPC: 1.43497 cumulative IPC: 1.41806 (Simulation time: 1 hr 43 min 9 sec) 
Heartbeat CPU 0 instructions: 75000003 cycles: 50470219 heartbeat IPC: 1.40941 cumulative IPC: 1.41793 (Simulation time: 1 hr 44 min 33 sec) 
Heartbeat CPU 0 instructions: 76000000 cycles: 51165742 heartbeat IPC: 1.43776 cumulative IPC: 1.41823 (Simulation time: 1 hr 45 min 54 sec) 
Heartbeat CPU 0 instructions: 77000000 cycles: 51881387 heartbeat IPC: 1.39734 cumulative IPC: 1.41791 (Simulation time: 1 hr 47 min 18 sec) 
Heartbeat CPU 0 instructions: 78000002 cycles: 52580065 heartbeat IPC: 1.43128 cumulative IPC: 1.4181 (Simulation time: 1 hr 48 min 41 sec) 
Heartbeat CPU 0 instructions: 79000000 cycles: 53287974 heartbeat IPC: 1.41261 cumulative IPC: 1.41802 (Simulation time: 1 hr 50 min 2 sec) 
Heartbeat CPU 0 instructions: 80000000 cycles: 53983645 heartbeat IPC: 1.43746 cumulative IPC: 1.4183 (Simulation time: 1 hr 51 min 23 sec) 
Heartbeat CPU 0 instructions: 81000003 cycles: 54692587 heartbeat IPC: 1.41056 cumulative IPC: 1.41819 (Simulation time: 1 hr 52 min 47 sec) 
Heartbeat CPU 0 instructions: 82000000 cycles: 55393508 heartbeat IPC: 1.42669 cumulative IPC: 1.41831 (Simulation time: 1 hr 54 min 9 sec) 
Heartbeat CPU 0 instructions: 83000002 cycles: 56085146 heartbeat IPC: 1.44585 cumulative IPC: 1.41868 (Simulation time: 1 hr 55 min 38 sec) 
Heartbeat CPU 0 instructions: 84000000 cycles: 56789907 heartbeat IPC: 1.41892 cumulative IPC: 1.41868 (Simulation time: 1 hr 56 min 58 sec) 
Heartbeat CPU 0 instructions: 85000001 cycles: 57485122 heartbeat IPC: 1.43841 cumulative IPC: 1.41894 (Simulation time: 1 hr 58 min 22 sec) 
Heartbeat CPU 0 instructions: 86000001 cycles: 58195488 heartbeat IPC: 1.40772 cumulative IPC: 1.41879 (Simulation time: 1 hr 59 min 44 sec) 
Heartbeat CPU 0 instructions: 87000001 cycles: 58895881 heartbeat IPC: 1.42777 cumulative IPC: 1.41891 (Simulation time: 2 hr 1 min 8 sec) 
Heartbeat CPU 0 instructions: 88000000 cycles: 59604329 heartbeat IPC: 1.41153 cumulative IPC: 1.41881 (Simulation time: 2 hr 2 min 28 sec) 
Heartbeat CPU 0 instructions: 89000003 cycles: 60301604 heartbeat IPC: 1.43416 cumulative IPC: 1.419 (Simulation time: 2 hr 3 min 52 sec) 
Heartbeat CPU 0 instructions: 90000001 cycles: 61011767 heartbeat IPC: 1.40812 cumulative IPC: 1.41887 (Simulation time: 2 hr 5 min 15 sec) 
Heartbeat CPU 0 instructions: 91000000 cycles: 61712602 heartbeat IPC: 1.42687 cumulative IPC: 1.41896 (Simulation time: 2 hr 6 min 37 sec) 
Heartbeat CPU 0 instructions: 92000000 cycles: 62424742 heartbeat IPC: 1.40422 cumulative IPC: 1.41878 (Simulation time: 2 hr 7 min 57 sec) 
Heartbeat CPU 0 instructions: 93000001 cycles: 63122281 heartbeat IPC: 1.43361 cumulative IPC: 1.41896 (Simulation time: 2 hr 9 min 17 sec) 
Heartbeat CPU 0 instructions: 94000003 cycles: 63835143 heartbeat IPC: 1.4028 cumulative IPC: 1.41876 (Simulation time: 2 hr 10 min 36 sec) 
Heartbeat CPU 0 instructions: 95000003 cycles: 64534850 heartbeat IPC: 1.42917 cumulative IPC: 1.41889 (Simulation time: 2 hr 11 min 50 sec) 
Heartbeat CPU 0 instructions: 96000000 cycles: 65239548 heartbeat IPC: 1.41904 cumulative IPC: 1.41889 (Simulation time: 2 hr 13 min 8 sec) 
Heartbeat CPU 0 instructions: 97000000 cycles: 65945823 heartbeat IPC: 1.41588 cumulative IPC: 1.41885 (Simulation time: 2 hr 14 min 32 sec) 
Heartbeat CPU 0 instructions: 98000001 cycles: 66641599 heartbeat IPC: 1.43725 cumulative IPC: 1.41906 (Simulation time: 2 hr 15 min 49 sec) 
Heartbeat CPU 0 instructions: 99000001 cycles: 67360825 heartbeat IPC: 1.39038 cumulative IPC: 1.41873 (Simulation time: 2 hr 17 min 7 sec) 
Heartbeat CPU 0 instructions: 100000000 cycles: 68067666 heartbeat IPC: 1.41474 cumulative IPC: 1.41869 (Simulation time: 2 hr 18 min 24 sec) 
Heartbeat CPU 0 instructions: 101000002 cycles: 68788829 heartbeat IPC: 1.38665 cumulative IPC: 1.41833 (Simulation time: 2 hr 19 min 40 sec) 
Heartbeat CPU 0 instructions: 102000003 cycles: 69500296 heartbeat IPC: 1.40555 cumulative IPC: 1.41819 (Simulation time: 2 hr 20 min 56 sec) 
Heartbeat CPU 0 instructions: 103000001 cycles: 70229261 heartbeat IPC: 1.37181 cumulative IPC: 1.41767 (Simulation time: 2 hr 22 min 12 sec) 
Heartbeat CPU 0 instructions: 104000000 cycles: 70944418 heartbeat IPC: 1.39829 cumulative IPC: 1.41746 (Simulation time: 2 hr 23 min 31 sec) 
Heartbeat CPU 0 instructions: 105000003 cycles: 71669514 heartbeat IPC: 1.37913 cumulative IPC: 1.41705 (Simulation time: 2 hr 24 min 46 sec) 
Heartbeat CPU 0 instructions: 106000002 cycles: 72376140 heartbeat IPC: 1.41517 cumulative IPC: 1.41703 (Simulation time: 2 hr 25 min 52 sec) 
Heartbeat CPU 0 instructions: 107000000 cycles: 73091449 heartbeat IPC: 1.39799 cumulative IPC: 1.41683 (Simulation time: 2 hr 26 min 55 sec) 
Heartbeat CPU 0 instructions: 108000000 cycles: 73791020 heartbeat IPC: 1.42945 cumulative IPC: 1.41696 (Simulation time: 2 hr 27 min 58 sec) 
Heartbeat CPU 0 instructions: 109000002 cycles: 74485843 heartbeat IPC: 1.43922 cumulative IPC: 1.41718 (Simulation time: 2 hr 28 min 55 sec) 
Heartbeat CPU 0 instructions: 110000000 cycles: 75194972 heartbeat IPC: 1.41018 cumulative IPC: 1.41711 (Simulation time: 2 hr 29 min 55 sec) 
Finished CPU 0 instructions: 100000003 cycles: 70566255 cummulative IPC: 1.41711 (Simulation time: 2 hr 29 min 55 sec) 

ChampSim completed all CPUs

Region of Interest Statistics

CPU 0 cummulative IPC: 1.41711 instructions: 100000003 cycles: 70566255
LLC TOTAL     ACCESS:     833385  HIT:      63453  MISS:     769932
LLC LOAD      ACCESS:      26679  HIT:      10889  MISS:      15790
LLC RFO       ACCESS:     201574  HIT:       7991  MISS:     193583
LLC PREFETCH  ACCESS:     401960  HIT:      12107  MISS:     389853
LLC WRITEBACK ACCESS:     203172  HIT:      32466  MISS:     170706
Insertion Distribution: 
	LOAD 2808 0 0 0 0 0 0 0 0 0 0 0 0 0 0 0 0 0 0 0 0 0 0 0 0 0 0 0 0 0 3952 11261 
	RFO 4440 0 0 0 0 0 0 0 0 0 0 0 0 0 0 0 0 0 0 0 0 0 0 0 0 0 0 0 0 0 9705 191064 
	PREF 0 7584 0 0 0 0 0 0 0 0 0 0 0 0 0 0 0 0 0 0 0 0 0 0 0 0 0 0 0 0 33294 378459 
	WRITEBACK 0 0 0 0 0 0 0 0 0 0 0 0 0 0 0 0 0 0 0 0 0 0 0 0 0 0 0 0 0 0 0 171784 
Total Prefetch Downgrades: 5248
