
*** ChampSim Multicore Out-of-Order Simulator ***

Warmup Instructions: 10000000
Simulation Instructions: 100000000
Configuration: 2
Number of CPUs: 1
LLC sets: 2048
LLC ways: 16
Off-chip DRAM Channels: 1 Width: 64-bit Data Rate: 1600 MT/s

CPU 0 runs /datasets/cs240c-wi22-a00-public/data/Assignment2-gz/leslie3d_1116B.trace.gz
CPU 0 L1D next line prefetcher
CPU 0 L2C IP-based stride prefetcher
Initialize SRRIP state
Heartbeat CPU 0 instructions: 1000003 cycles: 535311 heartbeat IPC: 1.86808 cumulative IPC: 1.86808 (Simulation time: 0 hr 1 min 39 sec) 
Heartbeat CPU 0 instructions: 2000003 cycles: 1071193 heartbeat IPC: 1.86608 cumulative IPC: 1.86708 (Simulation time: 0 hr 3 min 18 sec) 
Heartbeat CPU 0 instructions: 3000003 cycles: 1607887 heartbeat IPC: 1.86326 cumulative IPC: 1.8658 (Simulation time: 0 hr 4 min 51 sec) 
Heartbeat CPU 0 instructions: 4000000 cycles: 2143304 heartbeat IPC: 1.8677 cumulative IPC: 1.86628 (Simulation time: 0 hr 6 min 30 sec) 
Heartbeat CPU 0 instructions: 5000001 cycles: 2678446 heartbeat IPC: 1.86866 cumulative IPC: 1.86675 (Simulation time: 0 hr 8 min 9 sec) 
Heartbeat CPU 0 instructions: 6000001 cycles: 3213902 heartbeat IPC: 1.86757 cumulative IPC: 1.86689 (Simulation time: 0 hr 9 min 46 sec) 
Heartbeat CPU 0 instructions: 7000001 cycles: 3749873 heartbeat IPC: 1.86577 cumulative IPC: 1.86673 (Simulation time: 0 hr 11 min 20 sec) 
Heartbeat CPU 0 instructions: 8000000 cycles: 4285928 heartbeat IPC: 1.86548 cumulative IPC: 1.86657 (Simulation time: 0 hr 12 min 51 sec) 
Heartbeat CPU 0 instructions: 9000003 cycles: 4821088 heartbeat IPC: 1.86861 cumulative IPC: 1.8668 (Simulation time: 0 hr 14 min 24 sec) 
Heartbeat CPU 0 instructions: 10000002 cycles: 5356050 heartbeat IPC: 1.86929 cumulative IPC: 1.86705 (Simulation time: 0 hr 15 min 56 sec) 

Warmup complete CPU 0 instructions: 10000002 cycles: 5356050 (Simulation time: 0 hr 15 min 56 sec) 

Heartbeat CPU 0 instructions: 11000001 cycles: 6443476 heartbeat IPC: 0.919602 cumulative IPC: 0.919602 (Simulation time: 0 hr 17 min 37 sec) 
Heartbeat CPU 0 instructions: 12000000 cycles: 7492106 heartbeat IPC: 0.953624 cumulative IPC: 0.936304 (Simulation time: 0 hr 19 min 14 sec) 
Heartbeat CPU 0 instructions: 13000002 cycles: 8545511 heartbeat IPC: 0.949304 cumulative IPC: 0.940598 (Simulation time: 0 hr 20 min 51 sec) 
Heartbeat CPU 0 instructions: 14000003 cycles: 9593882 heartbeat IPC: 0.953862 cumulative IPC: 0.943879 (Simulation time: 0 hr 22 min 23 sec) 
Heartbeat CPU 0 instructions: 15000000 cycles: 10650454 heartbeat IPC: 0.946454 cumulative IPC: 0.944393 (Simulation time: 0 hr 23 min 59 sec) 
Heartbeat CPU 0 instructions: 16000000 cycles: 11706423 heartbeat IPC: 0.946998 cumulative IPC: 0.944826 (Simulation time: 0 hr 25 min 38 sec) 
Heartbeat CPU 0 instructions: 17000003 cycles: 12746369 heartbeat IPC: 0.961591 cumulative IPC: 0.947185 (Simulation time: 0 hr 27 min 12 sec) 
Heartbeat CPU 0 instructions: 18000001 cycles: 13815102 heartbeat IPC: 0.935686 cumulative IPC: 0.945732 (Simulation time: 0 hr 28 min 48 sec) 
Heartbeat CPU 0 instructions: 19000001 cycles: 14869788 heartbeat IPC: 0.94815 cumulative IPC: 0.946 (Simulation time: 0 hr 30 min 21 sec) 
Heartbeat CPU 0 instructions: 20000000 cycles: 15905890 heartbeat IPC: 0.965155 cumulative IPC: 0.947881 (Simulation time: 0 hr 31 min 59 sec) 
Heartbeat CPU 0 instructions: 21000000 cycles: 16974554 heartbeat IPC: 0.935748 cumulative IPC: 0.946765 (Simulation time: 0 hr 33 min 35 sec) 
Heartbeat CPU 0 instructions: 22000000 cycles: 18019554 heartbeat IPC: 0.956938 cumulative IPC: 0.947605 (Simulation time: 0 hr 35 min 7 sec) 
Heartbeat CPU 0 instructions: 23000003 cycles: 19076658 heartbeat IPC: 0.945984 cumulative IPC: 0.94748 (Simulation time: 0 hr 36 min 37 sec) 
Heartbeat CPU 0 instructions: 24000000 cycles: 20109605 heartbeat IPC: 0.968101 cumulative IPC: 0.948924 (Simulation time: 0 hr 38 min 10 sec) 
Heartbeat CPU 0 instructions: 25000001 cycles: 21136046 heartbeat IPC: 0.974241 cumulative IPC: 0.950571 (Simulation time: 0 hr 39 min 50 sec) 
Heartbeat CPU 0 instructions: 26000002 cycles: 22205055 heartbeat IPC: 0.935447 cumulative IPC: 0.949611 (Simulation time: 0 hr 41 min 25 sec) 
Heartbeat CPU 0 instructions: 27000001 cycles: 23257916 heartbeat IPC: 0.949792 cumulative IPC: 0.949622 (Simulation time: 0 hr 43 min 0 sec) 
Heartbeat CPU 0 instructions: 28000000 cycles: 24298032 heartbeat IPC: 0.96143 cumulative IPC: 0.95027 (Simulation time: 0 hr 44 min 36 sec) 
Heartbeat CPU 0 instructions: 29000003 cycles: 25340878 heartbeat IPC: 0.958917 cumulative IPC: 0.950721 (Simulation time: 0 hr 46 min 9 sec) 
Heartbeat CPU 0 instructions: 30000002 cycles: 26425691 heartbeat IPC: 0.921817 cumulative IPC: 0.949233 (Simulation time: 0 hr 47 min 48 sec) 
Heartbeat CPU 0 instructions: 31000001 cycles: 27484231 heartbeat IPC: 0.944696 cumulative IPC: 0.949016 (Simulation time: 0 hr 49 min 24 sec) 
Heartbeat CPU 0 instructions: 32000000 cycles: 28515098 heartbeat IPC: 0.970056 cumulative IPC: 0.949953 (Simulation time: 0 hr 51 min 3 sec) 
Heartbeat CPU 0 instructions: 33000002 cycles: 29556839 heartbeat IPC: 0.959933 cumulative IPC: 0.950382 (Simulation time: 0 hr 52 min 40 sec) 
Heartbeat CPU 0 instructions: 34000002 cycles: 30615148 heartbeat IPC: 0.944904 cumulative IPC: 0.950153 (Simulation time: 0 hr 54 min 20 sec) 
Heartbeat CPU 0 instructions: 35000000 cycles: 31670803 heartbeat IPC: 0.947277 cumulative IPC: 0.950037 (Simulation time: 0 hr 55 min 56 sec) 
Heartbeat CPU 0 instructions: 36000000 cycles: 32706731 heartbeat IPC: 0.965318 cumulative IPC: 0.950616 (Simulation time: 0 hr 57 min 32 sec) 
Heartbeat CPU 0 instructions: 37000003 cycles: 33956735 heartbeat IPC: 0.8 cumulative IPC: 0.944033 (Simulation time: 0 hr 59 min 14 sec) 
Heartbeat CPU 0 instructions: 38000003 cycles: 35452490 heartbeat IPC: 0.668559 cumulative IPC: 0.930343 (Simulation time: 1 hr 0 min 58 sec) 
Heartbeat CPU 0 instructions: 39000003 cycles: 36989461 heartbeat IPC: 0.65063 cumulative IPC: 0.916752 (Simulation time: 1 hr 2 min 36 sec) 
Heartbeat CPU 0 instructions: 40000000 cycles: 38538258 heartbeat IPC: 0.64566 cumulative IPC: 0.904099 (Simulation time: 1 hr 4 min 15 sec) 
Heartbeat CPU 0 instructions: 41000002 cycles: 40069871 heartbeat IPC: 0.652908 cumulative IPC: 0.893016 (Simulation time: 1 hr 5 min 58 sec) 
Heartbeat CPU 0 instructions: 42000001 cycles: 41606829 heartbeat IPC: 0.650635 cumulative IPC: 0.88274 (Simulation time: 1 hr 7 min 33 sec) 
Heartbeat CPU 0 instructions: 43000003 cycles: 43137579 heartbeat IPC: 0.653276 cumulative IPC: 0.873443 (Simulation time: 1 hr 9 min 12 sec) 
Heartbeat CPU 0 instructions: 44000000 cycles: 44666981 heartbeat IPC: 0.653848 cumulative IPC: 0.864899 (Simulation time: 1 hr 10 min 57 sec) 
Heartbeat CPU 0 instructions: 45000002 cycles: 46199444 heartbeat IPC: 0.652546 cumulative IPC: 0.856932 (Simulation time: 1 hr 12 min 40 sec) 
Heartbeat CPU 0 instructions: 46000002 cycles: 47741698 heartbeat IPC: 0.648402 cumulative IPC: 0.849344 (Simulation time: 1 hr 14 min 21 sec) 
Heartbeat CPU 0 instructions: 47000001 cycles: 49269427 heartbeat IPC: 0.654566 cumulative IPC: 0.842568 (Simulation time: 1 hr 16 min 2 sec) 
Heartbeat CPU 0 instructions: 48000000 cycles: 50785861 heartbeat IPC: 0.659441 cumulative IPC: 0.836455 (Simulation time: 1 hr 17 min 40 sec) 
Heartbeat CPU 0 instructions: 49000002 cycles: 52904250 heartbeat IPC: 0.472058 cumulative IPC: 0.82022 (Simulation time: 1 hr 19 min 28 sec) 
Heartbeat CPU 0 instructions: 50000000 cycles: 55242605 heartbeat IPC: 0.42765 cumulative IPC: 0.801819 (Simulation time: 1 hr 21 min 24 sec) 
Heartbeat CPU 0 instructions: 51000003 cycles: 57617864 heartbeat IPC: 0.421008 cumulative IPC: 0.784512 (Simulation time: 1 hr 23 min 16 sec) 
Heartbeat CPU 0 instructions: 52000000 cycles: 59958381 heartbeat IPC: 0.427255 cumulative IPC: 0.769198 (Simulation time: 1 hr 25 min 13 sec) 
Heartbeat CPU 0 instructions: 53000003 cycles: 62348768 heartbeat IPC: 0.418344 cumulative IPC: 0.754482 (Simulation time: 1 hr 27 min 10 sec) 
Heartbeat CPU 0 instructions: 54000000 cycles: 64660207 heartbeat IPC: 0.43263 cumulative IPC: 0.741938 (Simulation time: 1 hr 29 min 20 sec) 
Heartbeat CPU 0 instructions: 55000002 cycles: 66956762 heartbeat IPC: 0.435436 cumulative IPC: 0.730511 (Simulation time: 1 hr 31 min 33 sec) 
Heartbeat CPU 0 instructions: 56000000 cycles: 69308689 heartbeat IPC: 0.425182 cumulative IPC: 0.719282 (Simulation time: 1 hr 33 min 51 sec) 
Heartbeat CPU 0 instructions: 57000001 cycles: 71636499 heartbeat IPC: 0.429589 cumulative IPC: 0.709108 (Simulation time: 1 hr 36 min 7 sec) 
Heartbeat CPU 0 instructions: 58000001 cycles: 73875575 heartbeat IPC: 0.446613 cumulative IPC: 0.70053 (Simulation time: 1 hr 38 min 16 sec) 
Heartbeat CPU 0 instructions: 59000000 cycles: 75142032 heartbeat IPC: 0.789604 cumulative IPC: 0.702147 (Simulation time: 1 hr 40 min 8 sec) 
Heartbeat CPU 0 instructions: 60000000 cycles: 76432346 heartbeat IPC: 0.775005 cumulative IPC: 0.703469 (Simulation time: 1 hr 41 min 56 sec) 
Heartbeat CPU 0 instructions: 61000003 cycles: 77810568 heartbeat IPC: 0.725575 cumulative IPC: 0.70389 (Simulation time: 1 hr 43 min 41 sec) 
Heartbeat CPU 0 instructions: 62000002 cycles: 79153498 heartbeat IPC: 0.74464 cumulative IPC: 0.704631 (Simulation time: 1 hr 45 min 25 sec) 
Heartbeat CPU 0 instructions: 63000003 cycles: 80372301 heartbeat IPC: 0.820478 cumulative IPC: 0.706514 (Simulation time: 1 hr 47 min 13 sec) 
Heartbeat CPU 0 instructions: 64000000 cycles: 81600824 heartbeat IPC: 0.813983 cumulative IPC: 0.708245 (Simulation time: 1 hr 49 min 0 sec) 
Heartbeat CPU 0 instructions: 65000001 cycles: 83111115 heartbeat IPC: 0.662125 cumulative IPC: 0.707349 (Simulation time: 1 hr 50 min 45 sec) 
Heartbeat CPU 0 instructions: 66000000 cycles: 84328235 heartbeat IPC: 0.821611 cumulative IPC: 0.70911 (Simulation time: 1 hr 52 min 27 sec) 
Heartbeat CPU 0 instructions: 67000001 cycles: 85543643 heartbeat IPC: 0.82277 cumulative IPC: 0.710833 (Simulation time: 1 hr 54 min 18 sec) 
Heartbeat CPU 0 instructions: 68000000 cycles: 86946573 heartbeat IPC: 0.712793 cumulative IPC: 0.710867 (Simulation time: 1 hr 56 min 4 sec) 
Heartbeat CPU 0 instructions: 69000002 cycles: 88228895 heartbeat IPC: 0.779837 cumulative IPC: 0.711934 (Simulation time: 1 hr 57 min 51 sec) 
Heartbeat CPU 0 instructions: 70000000 cycles: 89426432 heartbeat IPC: 0.835046 cumulative IPC: 0.713688 (Simulation time: 1 hr 59 min 37 sec) 
Heartbeat CPU 0 instructions: 71000002 cycles: 90648325 heartbeat IPC: 0.818404 cumulative IPC: 0.715188 (Simulation time: 2 hr 1 min 22 sec) 
Heartbeat CPU 0 instructions: 72000000 cycles: 92088863 heartbeat IPC: 0.694184 cumulative IPC: 0.714839 (Simulation time: 2 hr 3 min 2 sec) 
Heartbeat CPU 0 instructions: 73000000 cycles: 93296010 heartbeat IPC: 0.8284 cumulative IPC: 0.716398 (Simulation time: 2 hr 4 min 47 sec) 
Heartbeat CPU 0 instructions: 74000000 cycles: 94505405 heartbeat IPC: 0.82686 cumulative IPC: 0.717896 (Simulation time: 2 hr 6 min 30 sec) 
Heartbeat CPU 0 instructions: 75000002 cycles: 95945532 heartbeat IPC: 0.694385 cumulative IPC: 0.717523 (Simulation time: 2 hr 8 min 5 sec) 
Heartbeat CPU 0 instructions: 76000000 cycles: 97150080 heartbeat IPC: 0.830185 cumulative IPC: 0.719001 (Simulation time: 2 hr 9 min 51 sec) 
Heartbeat CPU 0 instructions: 77000001 cycles: 98346859 heartbeat IPC: 0.835577 cumulative IPC: 0.720501 (Simulation time: 2 hr 11 min 32 sec) 
Heartbeat CPU 0 instructions: 78000000 cycles: 99649045 heartbeat IPC: 0.767939 cumulative IPC: 0.721156 (Simulation time: 2 hr 13 min 12 sec) 
Heartbeat CPU 0 instructions: 79000001 cycles: 100980150 heartbeat IPC: 0.751256 cumulative IPC: 0.721575 (Simulation time: 2 hr 14 min 50 sec) 
Heartbeat CPU 0 instructions: 80000000 cycles: 102178196 heartbeat IPC: 0.834692 cumulative IPC: 0.722975 (Simulation time: 2 hr 16 min 23 sec) 
Heartbeat CPU 0 instructions: 81000003 cycles: 103386071 heartbeat IPC: 0.827903 cumulative IPC: 0.724268 (Simulation time: 2 hr 17 min 58 sec) 
Heartbeat CPU 0 instructions: 82000000 cycles: 104817026 heartbeat IPC: 0.698832 cumulative IPC: 0.723902 (Simulation time: 2 hr 19 min 30 sec) 
Heartbeat CPU 0 instructions: 83000001 cycles: 106015370 heartbeat IPC: 0.834486 cumulative IPC: 0.725218 (Simulation time: 2 hr 21 min 8 sec) 
Heartbeat CPU 0 instructions: 84000000 cycles: 107219979 heartbeat IPC: 0.830144 cumulative IPC: 0.726459 (Simulation time: 2 hr 22 min 44 sec) 
Heartbeat CPU 0 instructions: 85000003 cycles: 108610015 heartbeat IPC: 0.719408 cumulative IPC: 0.726364 (Simulation time: 2 hr 24 min 12 sec) 
Heartbeat CPU 0 instructions: 86000002 cycles: 109834267 heartbeat IPC: 0.816824 cumulative IPC: 0.727424 (Simulation time: 2 hr 25 min 40 sec) 
Heartbeat CPU 0 instructions: 87000001 cycles: 111018176 heartbeat IPC: 0.844659 cumulative IPC: 0.728738 (Simulation time: 2 hr 26 min 58 sec) 
Heartbeat CPU 0 instructions: 88000000 cycles: 112222385 heartbeat IPC: 0.83042 cumulative IPC: 0.729884 (Simulation time: 2 hr 28 min 12 sec) 
Heartbeat CPU 0 instructions: 89000001 cycles: 113622869 heartbeat IPC: 0.71404 cumulative IPC: 0.729679 (Simulation time: 2 hr 29 min 21 sec) 
Heartbeat CPU 0 instructions: 90000003 cycles: 114818193 heartbeat IPC: 0.836595 cumulative IPC: 0.730846 (Simulation time: 2 hr 30 min 33 sec) 
Heartbeat CPU 0 instructions: 91000000 cycles: 116007383 heartbeat IPC: 0.840906 cumulative IPC: 0.732029 (Simulation time: 2 hr 31 min 37 sec) 
Heartbeat CPU 0 instructions: 92000000 cycles: 117430130 heartbeat IPC: 0.702866 cumulative IPC: 0.731659 (Simulation time: 2 hr 32 min 35 sec) 
Heartbeat CPU 0 instructions: 93000002 cycles: 118621221 heartbeat IPC: 0.839568 cumulative IPC: 0.732794 (Simulation time: 2 hr 33 min 41 sec) 
Heartbeat CPU 0 instructions: 94000000 cycles: 119819854 heartbeat IPC: 0.834282 cumulative IPC: 0.733856 (Simulation time: 2 hr 34 min 40 sec) 
Heartbeat CPU 0 instructions: 95000003 cycles: 121132467 heartbeat IPC: 0.761841 cumulative IPC: 0.734174 (Simulation time: 2 hr 35 min 32 sec) 
Heartbeat CPU 0 instructions: 96000000 cycles: 122442931 heartbeat IPC: 0.763086 cumulative IPC: 0.734497 (Simulation time: 2 hr 36 min 26 sec) 
Heartbeat CPU 0 instructions: 97000000 cycles: 123612761 heartbeat IPC: 0.854825 cumulative IPC: 0.735688 (Simulation time: 2 hr 37 min 18 sec) 
Heartbeat CPU 0 instructions: 98000000 cycles: 124801865 heartbeat IPC: 0.840969 cumulative IPC: 0.736736 (Simulation time: 2 hr 38 min 10 sec) 
Heartbeat CPU 0 instructions: 99000003 cycles: 126213223 heartbeat IPC: 0.70854 cumulative IPC: 0.736406 (Simulation time: 2 hr 38 min 58 sec) 
Heartbeat CPU 0 instructions: 100000000 cycles: 127399410 heartbeat IPC: 0.843035 cumulative IPC: 0.737443 (Simulation time: 2 hr 39 min 53 sec) 
Heartbeat CPU 0 instructions: 101000001 cycles: 128602995 heartbeat IPC: 0.830852 cumulative IPC: 0.738355 (Simulation time: 2 hr 40 min 44 sec) 
Heartbeat CPU 0 instructions: 102000003 cycles: 130008038 heartbeat IPC: 0.711723 cumulative IPC: 0.738055 (Simulation time: 2 hr 41 min 31 sec) 
Heartbeat CPU 0 instructions: 103000002 cycles: 131204187 heartbeat IPC: 0.836015 cumulative IPC: 0.738986 (Simulation time: 2 hr 42 min 16 sec) 
Heartbeat CPU 0 instructions: 104000000 cycles: 132405300 heartbeat IPC: 0.832559 cumulative IPC: 0.739871 (Simulation time: 2 hr 42 min 58 sec) 
Heartbeat CPU 0 instructions: 105000000 cycles: 133627305 heartbeat IPC: 0.818327 cumulative IPC: 0.740618 (Simulation time: 2 hr 43 min 41 sec) 
Heartbeat CPU 0 instructions: 106000003 cycles: 135487186 heartbeat IPC: 0.53767 cumulative IPC: 0.737717 (Simulation time: 2 hr 44 min 22 sec) 
Heartbeat CPU 0 instructions: 107000002 cycles: 137442135 heartbeat IPC: 0.511522 cumulative IPC: 0.73437 (Simulation time: 2 hr 45 min 6 sec) 
Heartbeat CPU 0 instructions: 108000000 cycles: 139476061 heartbeat IPC: 0.491659 cumulative IPC: 0.730689 (Simulation time: 2 hr 45 min 45 sec) 
Heartbeat CPU 0 instructions: 109000003 cycles: 141538579 heartbeat IPC: 0.484846 cumulative IPC: 0.726965 (Simulation time: 2 hr 46 min 23 sec) 
Heartbeat CPU 0 instructions: 110000000 cycles: 143513547 heartbeat IPC: 0.506336 cumulative IPC: 0.723812 (Simulation time: 2 hr 46 min 58 sec) 
Finished CPU 0 instructions: 100000002 cycles: 138157500 cummulative IPC: 0.723812 (Simulation time: 2 hr 46 min 58 sec) 

ChampSim completed all CPUs

Region of Interest Statistics

CPU 0 cummulative IPC: 0.723812 instructions: 100000002 cycles: 138157500
LLC TOTAL     ACCESS:    3583431  HIT:     673504  MISS:    2909927
LLC LOAD      ACCESS:     296171  HIT:      48434  MISS:     247737
LLC RFO       ACCESS:     622475  HIT:     119999  MISS:     502476
LLC PREFETCH  ACCESS:    1901414  HIT:     269235  MISS:    1632179
LLC WRITEBACK ACCESS:     763371  HIT:     235836  MISS:     527535
Insertion Distribution: 
	LOAD 17864 0 0 0 0 0 0 0 0 0 0 0 0 0 0 0 0 0 0 0 0 0 0 0 0 0 0 0 0 0 45104 187429 
	RFO 30 0 0 0 0 0 0 0 0 0 0 0 0 0 0 0 0 0 0 0 0 0 0 0 0 0 0 0 0 0 62256 466583 
	PREF 0 12068 0 0 0 0 0 0 0 0 0 0 0 0 0 0 0 0 0 0 0 0 0 0 0 0 0 0 0 0 189668 1544359 
	WRITEBACK 0 0 0 0 0 0 0 0 0 0 0 0 0 0 0 0 0 0 0 0 0 0 0 0 0 0 0 0 0 0 0 545869 
Total Prefetch Downgrades: 16969
