
*** ChampSim Multicore Out-of-Order Simulator ***

Warmup Instructions: 10000000
Simulation Instructions: 100000000
Configuration: 2
Number of CPUs: 1
LLC sets: 2048
LLC ways: 16
Off-chip DRAM Channels: 1 Width: 64-bit Data Rate: 1600 MT/s

CPU 0 runs /datasets/cs240c-wi22-a00-public/data/Assignment2-gz/astar_313B.trace.gz
CPU 0 L1D next line prefetcher
CPU 0 L2C IP-based stride prefetcher
Initialize SRRIP state
Heartbeat CPU 0 instructions: 1000001 cycles: 675694 heartbeat IPC: 1.47996 cumulative IPC: 1.47996 (Simulation time: 0 hr 2 min 1 sec) 
Heartbeat CPU 0 instructions: 2000003 cycles: 1262998 heartbeat IPC: 1.7027 cumulative IPC: 1.58354 (Simulation time: 0 hr 3 min 54 sec) 
Heartbeat CPU 0 instructions: 3000003 cycles: 1936984 heartbeat IPC: 1.48371 cumulative IPC: 1.5488 (Simulation time: 0 hr 5 min 52 sec) 
Heartbeat CPU 0 instructions: 4000000 cycles: 2610505 heartbeat IPC: 1.48473 cumulative IPC: 1.53227 (Simulation time: 0 hr 7 min 49 sec) 
Heartbeat CPU 0 instructions: 5000002 cycles: 3284998 heartbeat IPC: 1.4826 cumulative IPC: 1.52207 (Simulation time: 0 hr 9 min 46 sec) 
Heartbeat CPU 0 instructions: 6000001 cycles: 3871161 heartbeat IPC: 1.70601 cumulative IPC: 1.54992 (Simulation time: 0 hr 11 min 38 sec) 
Heartbeat CPU 0 instructions: 7000000 cycles: 4439881 heartbeat IPC: 1.75833 cumulative IPC: 1.57662 (Simulation time: 0 hr 13 min 21 sec) 
Heartbeat CPU 0 instructions: 8000000 cycles: 4991590 heartbeat IPC: 1.81255 cumulative IPC: 1.6027 (Simulation time: 0 hr 15 min 9 sec) 
Heartbeat CPU 0 instructions: 9000001 cycles: 5553204 heartbeat IPC: 1.78058 cumulative IPC: 1.62069 (Simulation time: 0 hr 16 min 53 sec) 
Heartbeat CPU 0 instructions: 10000002 cycles: 6228301 heartbeat IPC: 1.48127 cumulative IPC: 1.60557 (Simulation time: 0 hr 18 min 38 sec) 

Warmup complete CPU 0 instructions: 10000002 cycles: 6228301 (Simulation time: 0 hr 18 min 38 sec) 

Heartbeat CPU 0 instructions: 11000000 cycles: 12538572 heartbeat IPC: 0.158471 cumulative IPC: 0.158471 (Simulation time: 0 hr 20 min 32 sec) 
Heartbeat CPU 0 instructions: 12000000 cycles: 19017545 heartbeat IPC: 0.154345 cumulative IPC: 0.156381 (Simulation time: 0 hr 22 min 22 sec) 
Heartbeat CPU 0 instructions: 13000003 cycles: 27277318 heartbeat IPC: 0.121069 cumulative IPC: 0.142525 (Simulation time: 0 hr 24 min 32 sec) 
Heartbeat CPU 0 instructions: 14000002 cycles: 33507283 heartbeat IPC: 0.160514 cumulative IPC: 0.146633 (Simulation time: 0 hr 26 min 19 sec) 
Heartbeat CPU 0 instructions: 15000000 cycles: 39703443 heartbeat IPC: 0.16139 cumulative IPC: 0.149365 (Simulation time: 0 hr 28 min 5 sec) 
Heartbeat CPU 0 instructions: 16000000 cycles: 45752814 heartbeat IPC: 0.165306 cumulative IPC: 0.151804 (Simulation time: 0 hr 29 min 54 sec) 
Heartbeat CPU 0 instructions: 17000001 cycles: 51976375 heartbeat IPC: 0.16068 cumulative IPC: 0.153012 (Simulation time: 0 hr 31 min 46 sec) 
Heartbeat CPU 0 instructions: 18000000 cycles: 61019964 heartbeat IPC: 0.110575 cumulative IPC: 0.146008 (Simulation time: 0 hr 33 min 56 sec) 
Heartbeat CPU 0 instructions: 19000000 cycles: 67525327 heartbeat IPC: 0.153719 cumulative IPC: 0.146826 (Simulation time: 0 hr 35 min 44 sec) 
Heartbeat CPU 0 instructions: 20000000 cycles: 74489070 heartbeat IPC: 0.143601 cumulative IPC: 0.146497 (Simulation time: 0 hr 37 min 42 sec) 
Heartbeat CPU 0 instructions: 21000001 cycles: 83477604 heartbeat IPC: 0.111253 cumulative IPC: 0.142396 (Simulation time: 0 hr 39 min 49 sec) 
Heartbeat CPU 0 instructions: 22000002 cycles: 90865004 heartbeat IPC: 0.135366 cumulative IPC: 0.141782 (Simulation time: 0 hr 41 min 56 sec) 
Heartbeat CPU 0 instructions: 23000002 cycles: 97101979 heartbeat IPC: 0.160334 cumulative IPC: 0.143056 (Simulation time: 0 hr 43 min 54 sec) 
Heartbeat CPU 0 instructions: 24000000 cycles: 104032853 heartbeat IPC: 0.144282 cumulative IPC: 0.143143 (Simulation time: 0 hr 45 min 50 sec) 
Heartbeat CPU 0 instructions: 25000001 cycles: 112228183 heartbeat IPC: 0.122021 cumulative IPC: 0.14151 (Simulation time: 0 hr 47 min 55 sec) 
Heartbeat CPU 0 instructions: 26000002 cycles: 118956347 heartbeat IPC: 0.148629 cumulative IPC: 0.141935 (Simulation time: 0 hr 49 min 50 sec) 
Heartbeat CPU 0 instructions: 27000003 cycles: 128166933 heartbeat IPC: 0.108571 cumulative IPC: 0.139414 (Simulation time: 0 hr 51 min 56 sec) 
Heartbeat CPU 0 instructions: 28000000 cycles: 133822858 heartbeat IPC: 0.176805 cumulative IPC: 0.141072 (Simulation time: 0 hr 53 min 46 sec) 
Heartbeat CPU 0 instructions: 29000001 cycles: 142237643 heartbeat IPC: 0.118839 cumulative IPC: 0.139696 (Simulation time: 0 hr 55 min 51 sec) 
Heartbeat CPU 0 instructions: 30000001 cycles: 148093289 heartbeat IPC: 0.170775 cumulative IPC: 0.140979 (Simulation time: 0 hr 57 min 43 sec) 
Heartbeat CPU 0 instructions: 31000002 cycles: 154120176 heartbeat IPC: 0.165923 cumulative IPC: 0.141996 (Simulation time: 0 hr 59 min 37 sec) 
Heartbeat CPU 0 instructions: 32000000 cycles: 159779931 heartbeat IPC: 0.176686 cumulative IPC: 0.143274 (Simulation time: 1 hr 1 min 34 sec) 
Heartbeat CPU 0 instructions: 33000000 cycles: 165389793 heartbeat IPC: 0.178258 cumulative IPC: 0.144507 (Simulation time: 1 hr 3 min 30 sec) 
Heartbeat CPU 0 instructions: 34000000 cycles: 174185060 heartbeat IPC: 0.113698 cumulative IPC: 0.142894 (Simulation time: 1 hr 5 min 47 sec) 
Heartbeat CPU 0 instructions: 35000000 cycles: 180335761 heartbeat IPC: 0.162583 cumulative IPC: 0.143589 (Simulation time: 1 hr 7 min 35 sec) 
Heartbeat CPU 0 instructions: 36000000 cycles: 186868014 heartbeat IPC: 0.153087 cumulative IPC: 0.143933 (Simulation time: 1 hr 9 min 36 sec) 
Heartbeat CPU 0 instructions: 37000002 cycles: 195733243 heartbeat IPC: 0.1128 cumulative IPC: 0.142476 (Simulation time: 1 hr 11 min 48 sec) 
Heartbeat CPU 0 instructions: 38000000 cycles: 201729898 heartbeat IPC: 0.166759 cumulative IPC: 0.143221 (Simulation time: 1 hr 13 min 49 sec) 
Heartbeat CPU 0 instructions: 39000001 cycles: 210447563 heartbeat IPC: 0.11471 cumulative IPC: 0.142004 (Simulation time: 1 hr 15 min 58 sec) 
Heartbeat CPU 0 instructions: 40000000 cycles: 219215417 heartbeat IPC: 0.114053 cumulative IPC: 0.140854 (Simulation time: 1 hr 18 min 4 sec) 
Heartbeat CPU 0 instructions: 41000001 cycles: 225335915 heartbeat IPC: 0.163386 cumulative IPC: 0.141483 (Simulation time: 1 hr 19 min 58 sec) 
Heartbeat CPU 0 instructions: 42000003 cycles: 232398098 heartbeat IPC: 0.1416 cumulative IPC: 0.141487 (Simulation time: 1 hr 21 min 56 sec) 
Heartbeat CPU 0 instructions: 43000002 cycles: 241867768 heartbeat IPC: 0.1056 cumulative IPC: 0.140044 (Simulation time: 1 hr 24 min 11 sec) 
Heartbeat CPU 0 instructions: 44000000 cycles: 247909320 heartbeat IPC: 0.16552 cumulative IPC: 0.140681 (Simulation time: 1 hr 26 min 5 sec) 
Heartbeat CPU 0 instructions: 45000000 cycles: 254410122 heartbeat IPC: 0.153827 cumulative IPC: 0.141026 (Simulation time: 1 hr 27 min 53 sec) 
Heartbeat CPU 0 instructions: 46000002 cycles: 261269240 heartbeat IPC: 0.145792 cumulative IPC: 0.141154 (Simulation time: 1 hr 29 min 44 sec) 
Heartbeat CPU 0 instructions: 47000000 cycles: 268160251 heartbeat IPC: 0.145116 cumulative IPC: 0.141258 (Simulation time: 1 hr 31 min 39 sec) 
Heartbeat CPU 0 instructions: 48000000 cycles: 276238558 heartbeat IPC: 0.123788 cumulative IPC: 0.140735 (Simulation time: 1 hr 33 min 44 sec) 
Heartbeat CPU 0 instructions: 49000000 cycles: 281760642 heartbeat IPC: 0.181091 cumulative IPC: 0.141544 (Simulation time: 1 hr 35 min 36 sec) 
Heartbeat CPU 0 instructions: 50000000 cycles: 287801881 heartbeat IPC: 0.165529 cumulative IPC: 0.142059 (Simulation time: 1 hr 37 min 27 sec) 
Heartbeat CPU 0 instructions: 51000000 cycles: 294800270 heartbeat IPC: 0.14289 cumulative IPC: 0.142079 (Simulation time: 1 hr 39 min 25 sec) 
Heartbeat CPU 0 instructions: 52000000 cycles: 303009029 heartbeat IPC: 0.121821 cumulative IPC: 0.141519 (Simulation time: 1 hr 41 min 36 sec) 
Heartbeat CPU 0 instructions: 53000000 cycles: 309899249 heartbeat IPC: 0.145133 cumulative IPC: 0.141601 (Simulation time: 1 hr 43 min 29 sec) 
Heartbeat CPU 0 instructions: 54000000 cycles: 317874003 heartbeat IPC: 0.125396 cumulative IPC: 0.141186 (Simulation time: 1 hr 45 min 31 sec) 
Heartbeat CPU 0 instructions: 55000001 cycles: 326187886 heartbeat IPC: 0.120281 cumulative IPC: 0.140643 (Simulation time: 1 hr 47 min 27 sec) 
Heartbeat CPU 0 instructions: 56000000 cycles: 336117766 heartbeat IPC: 0.100706 cumulative IPC: 0.139441 (Simulation time: 1 hr 49 min 45 sec) 
Heartbeat CPU 0 instructions: 57000000 cycles: 342326798 heartbeat IPC: 0.161056 cumulative IPC: 0.13984 (Simulation time: 1 hr 51 min 35 sec) 
Heartbeat CPU 0 instructions: 58000001 cycles: 348755556 heartbeat IPC: 0.155551 cumulative IPC: 0.140135 (Simulation time: 1 hr 53 min 30 sec) 
Heartbeat CPU 0 instructions: 59000002 cycles: 357142996 heartbeat IPC: 0.119226 cumulative IPC: 0.139635 (Simulation time: 1 hr 55 min 32 sec) 
Heartbeat CPU 0 instructions: 60000000 cycles: 364682809 heartbeat IPC: 0.132629 cumulative IPC: 0.139488 (Simulation time: 1 hr 57 min 36 sec) 
Heartbeat CPU 0 instructions: 61000001 cycles: 370911754 heartbeat IPC: 0.160541 cumulative IPC: 0.139847 (Simulation time: 1 hr 59 min 30 sec) 
Heartbeat CPU 0 instructions: 62000001 cycles: 377523694 heartbeat IPC: 0.151242 cumulative IPC: 0.14005 (Simulation time: 2 hr 1 min 19 sec) 
Heartbeat CPU 0 instructions: 63000000 cycles: 384492789 heartbeat IPC: 0.143491 cumulative IPC: 0.140114 (Simulation time: 2 hr 3 min 15 sec) 
Heartbeat CPU 0 instructions: 64000000 cycles: 393519787 heartbeat IPC: 0.110779 cumulative IPC: 0.13943 (Simulation time: 2 hr 5 min 23 sec) 
Heartbeat CPU 0 instructions: 65000000 cycles: 400391408 heartbeat IPC: 0.145526 cumulative IPC: 0.139536 (Simulation time: 2 hr 7 min 29 sec) 
Heartbeat CPU 0 instructions: 66000001 cycles: 407124209 heartbeat IPC: 0.148527 cumulative IPC: 0.139687 (Simulation time: 2 hr 9 min 29 sec) 
Heartbeat CPU 0 instructions: 67000000 cycles: 414481034 heartbeat IPC: 0.135928 cumulative IPC: 0.139619 (Simulation time: 2 hr 11 min 29 sec) 
Heartbeat CPU 0 instructions: 68000000 cycles: 421994971 heartbeat IPC: 0.133086 cumulative IPC: 0.139501 (Simulation time: 2 hr 13 min 29 sec) 
Heartbeat CPU 0 instructions: 69000000 cycles: 433511233 heartbeat IPC: 0.0868337 cumulative IPC: 0.138082 (Simulation time: 2 hr 15 min 52 sec) 
Heartbeat CPU 0 instructions: 70000000 cycles: 439520910 heartbeat IPC: 0.166398 cumulative IPC: 0.138475 (Simulation time: 2 hr 17 min 31 sec) 
Heartbeat CPU 0 instructions: 71000002 cycles: 445956530 heartbeat IPC: 0.155385 cumulative IPC: 0.138722 (Simulation time: 2 hr 19 min 15 sec) 
Heartbeat CPU 0 instructions: 72000000 cycles: 453155113 heartbeat IPC: 0.138916 cumulative IPC: 0.138725 (Simulation time: 2 hr 21 min 3 sec) 
Heartbeat CPU 0 instructions: 73000003 cycles: 460493328 heartbeat IPC: 0.136273 cumulative IPC: 0.138686 (Simulation time: 2 hr 22 min 52 sec) 
Heartbeat CPU 0 instructions: 74000002 cycles: 469546223 heartbeat IPC: 0.110462 cumulative IPC: 0.138134 (Simulation time: 2 hr 24 min 40 sec) 
Heartbeat CPU 0 instructions: 75000000 cycles: 476019649 heartbeat IPC: 0.154477 cumulative IPC: 0.138359 (Simulation time: 2 hr 26 min 24 sec) 
Heartbeat CPU 0 instructions: 76000000 cycles: 482217573 heartbeat IPC: 0.161344 cumulative IPC: 0.138659 (Simulation time: 2 hr 27 min 52 sec) 
Heartbeat CPU 0 instructions: 77000000 cycles: 488580324 heartbeat IPC: 0.157165 cumulative IPC: 0.138903 (Simulation time: 2 hr 29 min 10 sec) 
Heartbeat CPU 0 instructions: 78000001 cycles: 494845359 heartbeat IPC: 0.159616 cumulative IPC: 0.139168 (Simulation time: 2 hr 30 min 26 sec) 
Heartbeat CPU 0 instructions: 79000000 cycles: 503700581 heartbeat IPC: 0.112928 cumulative IPC: 0.138701 (Simulation time: 2 hr 31 min 40 sec) 
Heartbeat CPU 0 instructions: 80000000 cycles: 509702314 heartbeat IPC: 0.166619 cumulative IPC: 0.139034 (Simulation time: 2 hr 32 min 47 sec) 
Heartbeat CPU 0 instructions: 81000001 cycles: 516993416 heartbeat IPC: 0.137154 cumulative IPC: 0.139007 (Simulation time: 2 hr 33 min 53 sec) 
Heartbeat CPU 0 instructions: 82000001 cycles: 523797691 heartbeat IPC: 0.146966 cumulative IPC: 0.139112 (Simulation time: 2 hr 35 min 7 sec) 
Heartbeat CPU 0 instructions: 83000002 cycles: 529342900 heartbeat IPC: 0.180336 cumulative IPC: 0.139549 (Simulation time: 2 hr 36 min 7 sec) 
Heartbeat CPU 0 instructions: 84000000 cycles: 535582870 heartbeat IPC: 0.160257 cumulative IPC: 0.139793 (Simulation time: 2 hr 37 min 13 sec) 
Heartbeat CPU 0 instructions: 85000000 cycles: 542709665 heartbeat IPC: 0.140316 cumulative IPC: 0.1398 (Simulation time: 2 hr 38 min 10 sec) 
Heartbeat CPU 0 instructions: 86000001 cycles: 550634656 heartbeat IPC: 0.126183 cumulative IPC: 0.139602 (Simulation time: 2 hr 39 min 12 sec) 
Heartbeat CPU 0 instructions: 87000000 cycles: 556299423 heartbeat IPC: 0.17653 cumulative IPC: 0.139982 (Simulation time: 2 hr 40 min 5 sec) 
Heartbeat CPU 0 instructions: 88000000 cycles: 562454192 heartbeat IPC: 0.162476 cumulative IPC: 0.140231 (Simulation time: 2 hr 40 min 59 sec) 
Heartbeat CPU 0 instructions: 89000002 cycles: 568956859 heartbeat IPC: 0.153783 cumulative IPC: 0.140387 (Simulation time: 2 hr 41 min 52 sec) 
Heartbeat CPU 0 instructions: 90000002 cycles: 575433250 heartbeat IPC: 0.154407 cumulative IPC: 0.140547 (Simulation time: 2 hr 42 min 39 sec) 
Heartbeat CPU 0 instructions: 91000001 cycles: 584090126 heartbeat IPC: 0.115515 cumulative IPC: 0.140172 (Simulation time: 2 hr 43 min 36 sec) 
Heartbeat CPU 0 instructions: 92000000 cycles: 590427061 heartbeat IPC: 0.157805 cumulative IPC: 0.140363 (Simulation time: 2 hr 44 min 23 sec) 
Heartbeat CPU 0 instructions: 93000003 cycles: 597580977 heartbeat IPC: 0.139784 cumulative IPC: 0.140356 (Simulation time: 2 hr 45 min 9 sec) 
Heartbeat CPU 0 instructions: 94000000 cycles: 605307657 heartbeat IPC: 0.129421 cumulative IPC: 0.140215 (Simulation time: 2 hr 45 min 49 sec) 
Heartbeat CPU 0 instructions: 95000000 cycles: 611958492 heartbeat IPC: 0.150357 cumulative IPC: 0.140326 (Simulation time: 2 hr 46 min 28 sec) 
Heartbeat CPU 0 instructions: 96000000 cycles: 621014558 heartbeat IPC: 0.110423 cumulative IPC: 0.139886 (Simulation time: 2 hr 47 min 8 sec) 
Heartbeat CPU 0 instructions: 97000000 cycles: 627538247 heartbeat IPC: 0.153288 cumulative IPC: 0.140027 (Simulation time: 2 hr 47 min 42 sec) 
Heartbeat CPU 0 instructions: 98000003 cycles: 635067434 heartbeat IPC: 0.132817 cumulative IPC: 0.13994 (Simulation time: 2 hr 48 min 15 sec) 
Heartbeat CPU 0 instructions: 99000001 cycles: 643075565 heartbeat IPC: 0.124873 cumulative IPC: 0.139751 (Simulation time: 2 hr 48 min 48 sec) 
Heartbeat CPU 0 instructions: 100000000 cycles: 650731829 heartbeat IPC: 0.130612 cumulative IPC: 0.139642 (Simulation time: 2 hr 49 min 23 sec) 
Heartbeat CPU 0 instructions: 101000000 cycles: 659654888 heartbeat IPC: 0.112069 cumulative IPC: 0.139266 (Simulation time: 2 hr 49 min 56 sec) 
Heartbeat CPU 0 instructions: 102000001 cycles: 665576380 heartbeat IPC: 0.168877 cumulative IPC: 0.139532 (Simulation time: 2 hr 50 min 23 sec) 
Heartbeat CPU 0 instructions: 103000001 cycles: 672145484 heartbeat IPC: 0.152228 cumulative IPC: 0.139657 (Simulation time: 2 hr 50 min 49 sec) 
Heartbeat CPU 0 instructions: 104000000 cycles: 678491862 heartbeat IPC: 0.15757 cumulative IPC: 0.139826 (Simulation time: 2 hr 51 min 13 sec) 
Heartbeat CPU 0 instructions: 105000000 cycles: 684495475 heartbeat IPC: 0.166566 cumulative IPC: 0.140063 (Simulation time: 2 hr 51 min 35 sec) 
Heartbeat CPU 0 instructions: 106000000 cycles: 693541943 heartbeat IPC: 0.11054 cumulative IPC: 0.139674 (Simulation time: 2 hr 51 min 57 sec) 
Heartbeat CPU 0 instructions: 107000002 cycles: 700338022 heartbeat IPC: 0.147144 cumulative IPC: 0.139747 (Simulation time: 2 hr 52 min 10 sec) 
Heartbeat CPU 0 instructions: 108000000 cycles: 709651584 heartbeat IPC: 0.10737 cumulative IPC: 0.139319 (Simulation time: 2 hr 52 min 24 sec) 
Heartbeat CPU 0 instructions: 109000003 cycles: 716262543 heartbeat IPC: 0.151264 cumulative IPC: 0.13943 (Simulation time: 2 hr 52 min 36 sec) 
Heartbeat CPU 0 instructions: 110000003 cycles: 722726872 heartbeat IPC: 0.154695 cumulative IPC: 0.139568 (Simulation time: 2 hr 52 min 47 sec) 
Finished CPU 0 instructions: 100000001 cycles: 716498571 cummulative IPC: 0.139568 (Simulation time: 2 hr 52 min 47 sec) 

ChampSim completed all CPUs

Region of Interest Statistics

CPU 0 cummulative IPC: 0.139568 instructions: 100000001 cycles: 716498571
LLC TOTAL     ACCESS:    8750987  HIT:    2757951  MISS:    5993036
LLC LOAD      ACCESS:    1886724  HIT:     520377  MISS:    1366347
LLC RFO       ACCESS:    1828635  HIT:     521182  MISS:    1307453
LLC PREFETCH  ACCESS:    2272819  HIT:     154094  MISS:    2118725
LLC WRITEBACK ACCESS:    2762809  HIT:    1562298  MISS:    1200511
Insertion Distribution: 
	LOAD 439705 0 0 0 0 0 0 0 0 0 0 0 0 0 0 0 0 0 0 0 0 0 0 0 0 0 0 0 0 0 260949 772625 
	RFO 189003 0 0 0 0 0 0 0 0 0 0 0 0 0 0 0 0 0 0 0 0 0 0 0 0 0 0 0 0 0 73438 1308816 
	PREF 0 19038 0 0 0 0 0 0 0 0 0 0 0 0 0 0 0 0 0 0 0 0 0 0 0 0 0 0 0 0 182666 2137234 
	WRITEBACK 0 0 0 0 0 0 0 0 0 0 0 0 0 0 0 0 0 0 0 0 0 0 0 0 0 0 0 0 0 0 0 1457513 
Total Prefetch Downgrades: 60458
