
*** ChampSim Multicore Out-of-Order Simulator ***

Warmup Instructions: 10000000
Simulation Instructions: 100000000
Configuration: 2
Number of CPUs: 1
LLC sets: 2048
LLC ways: 16
Off-chip DRAM Channels: 1 Width: 64-bit Data Rate: 1600 MT/s

CPU 0 runs /datasets/cs240c-wi22-a00-public/data/Assignment2-gz/lbm_1004B.trace.gz
CPU 0 L1D next line prefetcher
CPU 0 L2C IP-based stride prefetcher
Initialize SRRIP state
Heartbeat CPU 0 instructions: 1000002 cycles: 391414 heartbeat IPC: 2.55484 cumulative IPC: 2.55484 (Simulation time: 0 hr 1 min 30 sec) 
Heartbeat CPU 0 instructions: 2000001 cycles: 782838 heartbeat IPC: 2.55477 cumulative IPC: 2.55481 (Simulation time: 0 hr 2 min 54 sec) 
Heartbeat CPU 0 instructions: 3000001 cycles: 1174187 heartbeat IPC: 2.55526 cumulative IPC: 2.55496 (Simulation time: 0 hr 4 min 19 sec) 
Heartbeat CPU 0 instructions: 4000000 cycles: 1570372 heartbeat IPC: 2.52407 cumulative IPC: 2.54717 (Simulation time: 0 hr 5 min 44 sec) 
Heartbeat CPU 0 instructions: 5000002 cycles: 1961791 heartbeat IPC: 2.55481 cumulative IPC: 2.54869 (Simulation time: 0 hr 7 min 8 sec) 
Heartbeat CPU 0 instructions: 6000002 cycles: 2353159 heartbeat IPC: 2.55514 cumulative IPC: 2.54976 (Simulation time: 0 hr 8 min 27 sec) 
Heartbeat CPU 0 instructions: 7000003 cycles: 2749267 heartbeat IPC: 2.52457 cumulative IPC: 2.54613 (Simulation time: 0 hr 9 min 48 sec) 
Heartbeat CPU 0 instructions: 8000000 cycles: 3140617 heartbeat IPC: 2.55525 cumulative IPC: 2.54727 (Simulation time: 0 hr 11 min 9 sec) 
Heartbeat CPU 0 instructions: 9000003 cycles: 3532059 heartbeat IPC: 2.55466 cumulative IPC: 2.54809 (Simulation time: 0 hr 12 min 26 sec) 
Heartbeat CPU 0 instructions: 10000000 cycles: 3923432 heartbeat IPC: 2.5551 cumulative IPC: 2.54879 (Simulation time: 0 hr 13 min 39 sec) 

Warmup complete CPU 0 instructions: 10000004 cycles: 3923433 (Simulation time: 0 hr 13 min 39 sec) 

Heartbeat CPU 0 instructions: 11000002 cycles: 5436917 heartbeat IPC: 0.660728 cumulative IPC: 0.660726 (Simulation time: 0 hr 15 min 16 sec) 
Heartbeat CPU 0 instructions: 12000000 cycles: 6826756 heartbeat IPC: 0.719506 cumulative IPC: 0.688864 (Simulation time: 0 hr 16 min 52 sec) 
Heartbeat CPU 0 instructions: 13000002 cycles: 8337827 heartbeat IPC: 0.661784 cumulative IPC: 0.679595 (Simulation time: 0 hr 18 min 27 sec) 
Heartbeat CPU 0 instructions: 14000003 cycles: 9876791 heartbeat IPC: 0.649788 cumulative IPC: 0.67189 (Simulation time: 0 hr 20 min 0 sec) 
Heartbeat CPU 0 instructions: 15000001 cycles: 11298602 heartbeat IPC: 0.703327 cumulative IPC: 0.67795 (Simulation time: 0 hr 21 min 28 sec) 
Heartbeat CPU 0 instructions: 16000000 cycles: 12785949 heartbeat IPC: 0.672337 cumulative IPC: 0.677008 (Simulation time: 0 hr 22 min 59 sec) 
Heartbeat CPU 0 instructions: 17000000 cycles: 14332478 heartbeat IPC: 0.646609 cumulative IPC: 0.672492 (Simulation time: 0 hr 24 min 36 sec) 
Heartbeat CPU 0 instructions: 18000002 cycles: 15794679 heartbeat IPC: 0.683902 cumulative IPC: 0.673897 (Simulation time: 0 hr 26 min 13 sec) 
Heartbeat CPU 0 instructions: 19000002 cycles: 17277087 heartbeat IPC: 0.674578 cumulative IPC: 0.673973 (Simulation time: 0 hr 27 min 42 sec) 
Heartbeat CPU 0 instructions: 20000000 cycles: 18783625 heartbeat IPC: 0.663772 cumulative IPC: 0.672939 (Simulation time: 0 hr 29 min 16 sec) 
Heartbeat CPU 0 instructions: 21000003 cycles: 20293846 heartbeat IPC: 0.662157 cumulative IPC: 0.671944 (Simulation time: 0 hr 30 min 51 sec) 
Heartbeat CPU 0 instructions: 22000002 cycles: 21747420 heartbeat IPC: 0.687959 cumulative IPC: 0.67325 (Simulation time: 0 hr 32 min 22 sec) 
Heartbeat CPU 0 instructions: 23000001 cycles: 23252668 heartbeat IPC: 0.664342 cumulative IPC: 0.672556 (Simulation time: 0 hr 33 min 55 sec) 
Heartbeat CPU 0 instructions: 24000000 cycles: 24788608 heartbeat IPC: 0.651066 cumulative IPC: 0.670974 (Simulation time: 0 hr 35 min 27 sec) 
Heartbeat CPU 0 instructions: 25000003 cycles: 26243675 heartbeat IPC: 0.687256 cumulative IPC: 0.672036 (Simulation time: 0 hr 36 min 58 sec) 
Heartbeat CPU 0 instructions: 26000003 cycles: 27722471 heartbeat IPC: 0.676226 cumulative IPC: 0.672296 (Simulation time: 0 hr 38 min 31 sec) 
Heartbeat CPU 0 instructions: 27000001 cycles: 29234156 heartbeat IPC: 0.661512 cumulative IPC: 0.671652 (Simulation time: 0 hr 40 min 11 sec) 
Heartbeat CPU 0 instructions: 28000000 cycles: 30744458 heartbeat IPC: 0.662119 cumulative IPC: 0.671115 (Simulation time: 0 hr 41 min 45 sec) 
Heartbeat CPU 0 instructions: 29000002 cycles: 32217592 heartbeat IPC: 0.678826 cumulative IPC: 0.671517 (Simulation time: 0 hr 43 min 16 sec) 
Heartbeat CPU 0 instructions: 30000003 cycles: 33715008 heartbeat IPC: 0.667818 cumulative IPC: 0.671331 (Simulation time: 0 hr 44 min 48 sec) 
Heartbeat CPU 0 instructions: 31000001 cycles: 35260151 heartbeat IPC: 0.647188 cumulative IPC: 0.67014 (Simulation time: 0 hr 46 min 21 sec) 
Heartbeat CPU 0 instructions: 32000000 cycles: 36710330 heartbeat IPC: 0.689569 cumulative IPC: 0.671 (Simulation time: 0 hr 47 min 52 sec) 
Heartbeat CPU 0 instructions: 33000000 cycles: 38197734 heartbeat IPC: 0.672312 cumulative IPC: 0.671057 (Simulation time: 0 hr 49 min 25 sec) 
Heartbeat CPU 0 instructions: 34000002 cycles: 39789850 heartbeat IPC: 0.628096 cumulative IPC: 0.66915 (Simulation time: 0 hr 51 min 2 sec) 
Heartbeat CPU 0 instructions: 35000001 cycles: 41276165 heartbeat IPC: 0.672804 cumulative IPC: 0.669295 (Simulation time: 0 hr 52 min 34 sec) 
Heartbeat CPU 0 instructions: 36000000 cycles: 42751365 heartbeat IPC: 0.677873 cumulative IPC: 0.669621 (Simulation time: 0 hr 54 min 9 sec) 
Heartbeat CPU 0 instructions: 37000002 cycles: 44233800 heartbeat IPC: 0.674567 cumulative IPC: 0.669803 (Simulation time: 0 hr 55 min 42 sec) 
Heartbeat CPU 0 instructions: 38000000 cycles: 45785121 heartbeat IPC: 0.644611 cumulative IPC: 0.668869 (Simulation time: 0 hr 57 min 16 sec) 
Heartbeat CPU 0 instructions: 39000003 cycles: 47275589 heartbeat IPC: 0.670932 cumulative IPC: 0.66894 (Simulation time: 0 hr 58 min 50 sec) 
Heartbeat CPU 0 instructions: 40000000 cycles: 48729186 heartbeat IPC: 0.687946 cumulative IPC: 0.669557 (Simulation time: 1 hr 0 min 23 sec) 
Heartbeat CPU 0 instructions: 41000002 cycles: 50283913 heartbeat IPC: 0.643201 cumulative IPC: 0.668673 (Simulation time: 1 hr 2 min 2 sec) 
Heartbeat CPU 0 instructions: 42000000 cycles: 51792488 heartbeat IPC: 0.662876 cumulative IPC: 0.66849 (Simulation time: 1 hr 3 min 36 sec) 
Heartbeat CPU 0 instructions: 43000002 cycles: 53265027 heartbeat IPC: 0.679101 cumulative IPC: 0.668807 (Simulation time: 1 hr 5 min 13 sec) 
Heartbeat CPU 0 instructions: 44000000 cycles: 54825545 heartbeat IPC: 0.640812 cumulative IPC: 0.667949 (Simulation time: 1 hr 6 min 45 sec) 
Heartbeat CPU 0 instructions: 45000000 cycles: 56338006 heartbeat IPC: 0.661174 cumulative IPC: 0.667753 (Simulation time: 1 hr 8 min 15 sec) 
Heartbeat CPU 0 instructions: 46000003 cycles: 57835121 heartbeat IPC: 0.667953 cumulative IPC: 0.667759 (Simulation time: 1 hr 9 min 50 sec) 
Heartbeat CPU 0 instructions: 47000002 cycles: 59301458 heartbeat IPC: 0.681971 cumulative IPC: 0.668135 (Simulation time: 1 hr 11 min 25 sec) 
Heartbeat CPU 0 instructions: 48000000 cycles: 60850945 heartbeat IPC: 0.645374 cumulative IPC: 0.667516 (Simulation time: 1 hr 13 min 3 sec) 
Heartbeat CPU 0 instructions: 49000000 cycles: 62345477 heartbeat IPC: 0.669106 cumulative IPC: 0.667556 (Simulation time: 1 hr 14 min 39 sec) 
Heartbeat CPU 0 instructions: 50000003 cycles: 63853438 heartbeat IPC: 0.663149 cumulative IPC: 0.667445 (Simulation time: 1 hr 16 min 19 sec) 
Heartbeat CPU 0 instructions: 51000001 cycles: 65396428 heartbeat IPC: 0.648091 cumulative IPC: 0.666959 (Simulation time: 1 hr 17 min 57 sec) 
Heartbeat CPU 0 instructions: 52000000 cycles: 66880767 heartbeat IPC: 0.6737 cumulative IPC: 0.667118 (Simulation time: 1 hr 19 min 36 sec) 
Heartbeat CPU 0 instructions: 53000002 cycles: 68381060 heartbeat IPC: 0.666538 cumulative IPC: 0.667105 (Simulation time: 1 hr 21 min 10 sec) 
Heartbeat CPU 0 instructions: 54000002 cycles: 69918999 heartbeat IPC: 0.650221 cumulative IPC: 0.666711 (Simulation time: 1 hr 22 min 46 sec) 
Heartbeat CPU 0 instructions: 55000001 cycles: 71461443 heartbeat IPC: 0.648321 cumulative IPC: 0.666291 (Simulation time: 1 hr 24 min 22 sec) 
Heartbeat CPU 0 instructions: 56000000 cycles: 72976833 heartbeat IPC: 0.659895 cumulative IPC: 0.666151 (Simulation time: 1 hr 26 min 0 sec) 
Heartbeat CPU 0 instructions: 57000003 cycles: 74472701 heartbeat IPC: 0.66851 cumulative IPC: 0.666201 (Simulation time: 1 hr 27 min 29 sec) 
Heartbeat CPU 0 instructions: 58000003 cycles: 76044030 heartbeat IPC: 0.636404 cumulative IPC: 0.665552 (Simulation time: 1 hr 29 min 2 sec) 
Heartbeat CPU 0 instructions: 59000002 cycles: 77578698 heartbeat IPC: 0.651606 cumulative IPC: 0.665261 (Simulation time: 1 hr 30 min 32 sec) 
Heartbeat CPU 0 instructions: 60000000 cycles: 79081385 heartbeat IPC: 0.665473 cumulative IPC: 0.665266 (Simulation time: 1 hr 32 min 6 sec) 
Heartbeat CPU 0 instructions: 61000003 cycles: 80636957 heartbeat IPC: 0.642852 cumulative IPC: 0.664811 (Simulation time: 1 hr 33 min 42 sec) 
Heartbeat CPU 0 instructions: 62000001 cycles: 82138873 heartbeat IPC: 0.665815 cumulative IPC: 0.66483 (Simulation time: 1 hr 35 min 18 sec) 
Heartbeat CPU 0 instructions: 63000001 cycles: 83630319 heartbeat IPC: 0.67049 cumulative IPC: 0.664936 (Simulation time: 1 hr 36 min 45 sec) 
Heartbeat CPU 0 instructions: 64000000 cycles: 85113404 heartbeat IPC: 0.674269 cumulative IPC: 0.665107 (Simulation time: 1 hr 38 min 18 sec) 
Heartbeat CPU 0 instructions: 65000000 cycles: 86671942 heartbeat IPC: 0.641627 cumulative IPC: 0.664665 (Simulation time: 1 hr 39 min 54 sec) 
Heartbeat CPU 0 instructions: 66000000 cycles: 88165263 heartbeat IPC: 0.669648 cumulative IPC: 0.664753 (Simulation time: 1 hr 41 min 28 sec) 
Heartbeat CPU 0 instructions: 67000000 cycles: 89668750 heartbeat IPC: 0.66512 cumulative IPC: 0.664759 (Simulation time: 1 hr 43 min 1 sec) 
Heartbeat CPU 0 instructions: 68000000 cycles: 91218388 heartbeat IPC: 0.645312 cumulative IPC: 0.664414 (Simulation time: 1 hr 44 min 34 sec) 
Heartbeat CPU 0 instructions: 69000000 cycles: 92715303 heartbeat IPC: 0.668041 cumulative IPC: 0.664475 (Simulation time: 1 hr 46 min 9 sec) 
Heartbeat CPU 0 instructions: 70000000 cycles: 94215692 heartbeat IPC: 0.666494 cumulative IPC: 0.664509 (Simulation time: 1 hr 47 min 43 sec) 
Heartbeat CPU 0 instructions: 71000002 cycles: 95771487 heartbeat IPC: 0.64276 cumulative IPC: 0.66414 (Simulation time: 1 hr 49 min 21 sec) 
Heartbeat CPU 0 instructions: 72000000 cycles: 98154751 heartbeat IPC: 0.419592 cumulative IPC: 0.657955 (Simulation time: 1 hr 51 min 27 sec) 
Heartbeat CPU 0 instructions: 73000002 cycles: 101480679 heartbeat IPC: 0.300669 cumulative IPC: 0.645775 (Simulation time: 1 hr 54 min 2 sec) 
Heartbeat CPU 0 instructions: 74000002 cycles: 108125597 heartbeat IPC: 0.150491 cumulative IPC: 0.614191 (Simulation time: 1 hr 58 min 14 sec) 
Heartbeat CPU 0 instructions: 75000003 cycles: 110517712 heartbeat IPC: 0.418041 cumulative IPC: 0.609789 (Simulation time: 2 hr 0 min 12 sec) 
Heartbeat CPU 0 instructions: 76000000 cycles: 112530267 heartbeat IPC: 0.496879 cumulative IPC: 0.607697 (Simulation time: 2 hr 2 min 5 sec) 
Heartbeat CPU 0 instructions: 77000000 cycles: 113742202 heartbeat IPC: 0.825127 cumulative IPC: 0.610096 (Simulation time: 2 hr 3 min 29 sec) 
Heartbeat CPU 0 instructions: 78000002 cycles: 115131040 heartbeat IPC: 0.720028 cumulative IPC: 0.611469 (Simulation time: 2 hr 5 min 4 sec) 
Heartbeat CPU 0 instructions: 79000002 cycles: 116686420 heartbeat IPC: 0.64293 cumulative IPC: 0.611903 (Simulation time: 2 hr 6 min 38 sec) 
Heartbeat CPU 0 instructions: 80000000 cycles: 118065481 heartbeat IPC: 0.72513 cumulative IPC: 0.613271 (Simulation time: 2 hr 8 min 4 sec) 
Heartbeat CPU 0 instructions: 81000001 cycles: 119417063 heartbeat IPC: 0.739874 cumulative IPC: 0.614752 (Simulation time: 2 hr 9 min 31 sec) 
Heartbeat CPU 0 instructions: 82000002 cycles: 120892427 heartbeat IPC: 0.6778 cumulative IPC: 0.615548 (Simulation time: 2 hr 11 min 0 sec) 
Heartbeat CPU 0 instructions: 83000003 cycles: 122444735 heartbeat IPC: 0.644203 cumulative IPC: 0.615923 (Simulation time: 2 hr 12 min 30 sec) 
Heartbeat CPU 0 instructions: 84000000 cycles: 123867008 heartbeat IPC: 0.703098 cumulative IPC: 0.616957 (Simulation time: 2 hr 14 min 0 sec) 
Heartbeat CPU 0 instructions: 85000000 cycles: 125295313 heartbeat IPC: 0.700131 cumulative IPC: 0.617936 (Simulation time: 2 hr 15 min 30 sec) 
Heartbeat CPU 0 instructions: 86000000 cycles: 126876784 heartbeat IPC: 0.632323 cumulative IPC: 0.618121 (Simulation time: 2 hr 16 min 55 sec) 
Heartbeat CPU 0 instructions: 87000002 cycles: 128354289 heartbeat IPC: 0.676818 cumulative IPC: 0.618818 (Simulation time: 2 hr 18 min 18 sec) 
Heartbeat CPU 0 instructions: 88000000 cycles: 129828568 heartbeat IPC: 0.678296 cumulative IPC: 0.619514 (Simulation time: 2 hr 19 min 43 sec) 
Heartbeat CPU 0 instructions: 89000003 cycles: 131292822 heartbeat IPC: 0.682944 cumulative IPC: 0.620243 (Simulation time: 2 hr 21 min 5 sec) 
Heartbeat CPU 0 instructions: 90000002 cycles: 132832485 heartbeat IPC: 0.649492 cumulative IPC: 0.620593 (Simulation time: 2 hr 22 min 33 sec) 
Heartbeat CPU 0 instructions: 91000001 cycles: 134339922 heartbeat IPC: 0.663377 cumulative IPC: 0.621087 (Simulation time: 2 hr 23 min 55 sec) 
Heartbeat CPU 0 instructions: 92000000 cycles: 135849488 heartbeat IPC: 0.662441 cumulative IPC: 0.62156 (Simulation time: 2 hr 25 min 17 sec) 
Heartbeat CPU 0 instructions: 93000003 cycles: 137385000 heartbeat IPC: 0.651251 cumulative IPC: 0.621902 (Simulation time: 2 hr 26 min 33 sec) 
Heartbeat CPU 0 instructions: 94000003 cycles: 138887500 heartbeat IPC: 0.665557 cumulative IPC: 0.622388 (Simulation time: 2 hr 27 min 40 sec) 
Heartbeat CPU 0 instructions: 95000000 cycles: 140390237 heartbeat IPC: 0.66545 cumulative IPC: 0.622862 (Simulation time: 2 hr 28 min 45 sec) 
Heartbeat CPU 0 instructions: 96000000 cycles: 141946112 heartbeat IPC: 0.642725 cumulative IPC: 0.623086 (Simulation time: 2 hr 29 min 49 sec) 
Heartbeat CPU 0 instructions: 97000002 cycles: 143480889 heartbeat IPC: 0.651562 cumulative IPC: 0.623399 (Simulation time: 2 hr 30 min 50 sec) 
Heartbeat CPU 0 instructions: 98000001 cycles: 144995888 heartbeat IPC: 0.660066 cumulative IPC: 0.623793 (Simulation time: 2 hr 31 min 48 sec) 
Heartbeat CPU 0 instructions: 99000000 cycles: 146464686 heartbeat IPC: 0.680828 cumulative IPC: 0.624381 (Simulation time: 2 hr 32 min 43 sec) 
Heartbeat CPU 0 instructions: 100000000 cycles: 148009256 heartbeat IPC: 0.647429 cumulative IPC: 0.624628 (Simulation time: 2 hr 33 min 40 sec) 
Heartbeat CPU 0 instructions: 101000000 cycles: 149507103 heartbeat IPC: 0.667625 cumulative IPC: 0.62507 (Simulation time: 2 hr 34 min 31 sec) 
Heartbeat CPU 0 instructions: 102000000 cycles: 151026466 heartbeat IPC: 0.658171 cumulative IPC: 0.625412 (Simulation time: 2 hr 35 min 26 sec) 
Heartbeat CPU 0 instructions: 103000001 cycles: 152559888 heartbeat IPC: 0.652137 cumulative IPC: 0.625688 (Simulation time: 2 hr 36 min 19 sec) 
Heartbeat CPU 0 instructions: 104000000 cycles: 154082619 heartbeat IPC: 0.656714 cumulative IPC: 0.626002 (Simulation time: 2 hr 37 min 11 sec) 
Heartbeat CPU 0 instructions: 105000001 cycles: 155592458 heartbeat IPC: 0.662323 cumulative IPC: 0.626364 (Simulation time: 2 hr 37 min 59 sec) 
Heartbeat CPU 0 instructions: 106000000 cycles: 157052433 heartbeat IPC: 0.684943 cumulative IPC: 0.626922 (Simulation time: 2 hr 38 min 45 sec) 
Heartbeat CPU 0 instructions: 107000000 cycles: 158638102 heartbeat IPC: 0.630649 cumulative IPC: 0.626961 (Simulation time: 2 hr 39 min 35 sec) 
Heartbeat CPU 0 instructions: 108000000 cycles: 160180446 heartbeat IPC: 0.648364 cumulative IPC: 0.627172 (Simulation time: 2 hr 40 min 16 sec) 
Heartbeat CPU 0 instructions: 109000003 cycles: 161663409 heartbeat IPC: 0.674328 cumulative IPC: 0.627615 (Simulation time: 2 hr 40 min 57 sec) 
Heartbeat CPU 0 instructions: 110000001 cycles: 163220435 heartbeat IPC: 0.642249 cumulative IPC: 0.627758 (Simulation time: 2 hr 41 min 40 sec) 
Finished CPU 0 instructions: 100000001 cycles: 159297003 cummulative IPC: 0.627758 (Simulation time: 2 hr 41 min 40 sec) 

ChampSim completed all CPUs

Region of Interest Statistics

CPU 0 cummulative IPC: 0.627758 instructions: 100000001 cycles: 159297003
LLC TOTAL     ACCESS:    5801921  HIT:     829838  MISS:    4972083
LLC LOAD      ACCESS:     420468  HIT:      21606  MISS:     398862
LLC RFO       ACCESS:    2473080  HIT:     224052  MISS:    2249028
LLC PREFETCH  ACCESS:     435273  HIT:      27864  MISS:     407409
LLC WRITEBACK ACCESS:    2473100  HIT:     556316  MISS:    1916784
Insertion Distribution: 
	LOAD 0 0 0 0 0 0 0 0 0 0 0 0 0 0 0 0 0 0 0 0 0 0 0 0 0 0 0 0 0 0 3678 425339 
	RFO 74653 0 0 0 0 0 0 0 0 0 0 0 0 0 0 0 0 0 0 0 0 0 0 0 0 0 0 0 0 0 292534 2077645 
	PREF 0 14182 0 0 0 0 0 0 0 0 0 0 0 0 0 0 0 0 0 0 0 0 0 0 0 0 0 0 0 0 60706 375977 
	WRITEBACK 0 0 0 0 0 0 0 0 0 0 0 0 0 0 0 0 0 0 0 0 0 0 0 0 0 0 0 0 0 0 0 2036449 
Total Prefetch Downgrades: 21565
