
*** ChampSim Multicore Out-of-Order Simulator ***

Warmup Instructions: 10000000
Simulation Instructions: 100000000
Configuration: 2
Number of CPUs: 1
LLC sets: 2048
LLC ways: 16
Off-chip DRAM Channels: 1 Width: 64-bit Data Rate: 1600 MT/s

CPU 0 runs /datasets/cs240c-wi22-a00-public/data/Assignment2-gz/astar_163B.trace.gz
CPU 0 L1D next line prefetcher
CPU 0 L2C IP-based stride prefetcher
Initialize SRRIP state
Heartbeat CPU 0 instructions: 1000002 cycles: 531212 heartbeat IPC: 1.88249 cumulative IPC: 1.88249 (Simulation time: 0 hr 1 min 39 sec) 
Heartbeat CPU 0 instructions: 2000003 cycles: 1060822 heartbeat IPC: 1.88818 cumulative IPC: 1.88533 (Simulation time: 0 hr 3 min 17 sec) 
Heartbeat CPU 0 instructions: 3000003 cycles: 1590855 heartbeat IPC: 1.88668 cumulative IPC: 1.88578 (Simulation time: 0 hr 4 min 54 sec) 
Heartbeat CPU 0 instructions: 4000000 cycles: 2120959 heartbeat IPC: 1.88642 cumulative IPC: 1.88594 (Simulation time: 0 hr 6 min 28 sec) 
Heartbeat CPU 0 instructions: 5000000 cycles: 2652872 heartbeat IPC: 1.88001 cumulative IPC: 1.88475 (Simulation time: 0 hr 8 min 2 sec) 
Heartbeat CPU 0 instructions: 6000002 cycles: 3181386 heartbeat IPC: 1.8921 cumulative IPC: 1.88597 (Simulation time: 0 hr 9 min 35 sec) 
Heartbeat CPU 0 instructions: 7000003 cycles: 3710910 heartbeat IPC: 1.88849 cumulative IPC: 1.88633 (Simulation time: 0 hr 11 min 14 sec) 
Heartbeat CPU 0 instructions: 8000000 cycles: 4240193 heartbeat IPC: 1.88934 cumulative IPC: 1.88671 (Simulation time: 0 hr 12 min 45 sec) 
Heartbeat CPU 0 instructions: 9000000 cycles: 4771206 heartbeat IPC: 1.88319 cumulative IPC: 1.88632 (Simulation time: 0 hr 14 min 18 sec) 
Heartbeat CPU 0 instructions: 10000001 cycles: 5301285 heartbeat IPC: 1.88651 cumulative IPC: 1.88634 (Simulation time: 0 hr 15 min 50 sec) 

Warmup complete CPU 0 instructions: 10000001 cycles: 5301285 (Simulation time: 0 hr 15 min 50 sec) 

Heartbeat CPU 0 instructions: 11000003 cycles: 7523134 heartbeat IPC: 0.450076 cumulative IPC: 0.450076 (Simulation time: 0 hr 17 min 38 sec) 
Heartbeat CPU 0 instructions: 12000000 cycles: 9771803 heartbeat IPC: 0.444706 cumulative IPC: 0.447375 (Simulation time: 0 hr 19 min 22 sec) 
Heartbeat CPU 0 instructions: 13000000 cycles: 12024391 heartbeat IPC: 0.443934 cumulative IPC: 0.446222 (Simulation time: 0 hr 21 min 0 sec) 
Heartbeat CPU 0 instructions: 14000000 cycles: 14280365 heartbeat IPC: 0.443268 cumulative IPC: 0.44548 (Simulation time: 0 hr 22 min 38 sec) 
Heartbeat CPU 0 instructions: 15000000 cycles: 16602663 heartbeat IPC: 0.430608 cumulative IPC: 0.442424 (Simulation time: 0 hr 24 min 23 sec) 
Heartbeat CPU 0 instructions: 16000000 cycles: 18964987 heartbeat IPC: 0.423312 cumulative IPC: 0.43912 (Simulation time: 0 hr 26 min 0 sec) 
Heartbeat CPU 0 instructions: 17000003 cycles: 21281291 heartbeat IPC: 0.431724 cumulative IPC: 0.438048 (Simulation time: 0 hr 27 min 38 sec) 
Heartbeat CPU 0 instructions: 18000002 cycles: 23583700 heartbeat IPC: 0.434327 cumulative IPC: 0.437579 (Simulation time: 0 hr 29 min 19 sec) 
Heartbeat CPU 0 instructions: 19000000 cycles: 25888674 heartbeat IPC: 0.433843 cumulative IPC: 0.437161 (Simulation time: 0 hr 30 min 58 sec) 
Heartbeat CPU 0 instructions: 20000000 cycles: 28195705 heartbeat IPC: 0.433458 cumulative IPC: 0.436788 (Simulation time: 0 hr 32 min 40 sec) 
Heartbeat CPU 0 instructions: 21000003 cycles: 30543828 heartbeat IPC: 0.425873 cumulative IPC: 0.435772 (Simulation time: 0 hr 34 min 22 sec) 
Heartbeat CPU 0 instructions: 22000002 cycles: 33005260 heartbeat IPC: 0.406267 cumulative IPC: 0.433151 (Simulation time: 0 hr 35 min 58 sec) 
Heartbeat CPU 0 instructions: 23000001 cycles: 35427079 heartbeat IPC: 0.412912 cumulative IPC: 0.431524 (Simulation time: 0 hr 37 min 41 sec) 
Heartbeat CPU 0 instructions: 24000000 cycles: 37870259 heartbeat IPC: 0.409302 cumulative IPC: 0.429857 (Simulation time: 0 hr 39 min 19 sec) 
Heartbeat CPU 0 instructions: 25000003 cycles: 40047182 heartbeat IPC: 0.459365 cumulative IPC: 0.431706 (Simulation time: 0 hr 40 min 59 sec) 
Heartbeat CPU 0 instructions: 26000003 cycles: 41796717 heartbeat IPC: 0.57158 cumulative IPC: 0.438411 (Simulation time: 0 hr 42 min 39 sec) 
Heartbeat CPU 0 instructions: 27000000 cycles: 43621635 heartbeat IPC: 0.547968 cumulative IPC: 0.443628 (Simulation time: 0 hr 44 min 23 sec) 
Heartbeat CPU 0 instructions: 28000000 cycles: 45561718 heartbeat IPC: 0.515442 cumulative IPC: 0.447089 (Simulation time: 0 hr 46 min 2 sec) 
Heartbeat CPU 0 instructions: 29000000 cycles: 47497107 heartbeat IPC: 0.516692 cumulative IPC: 0.450282 (Simulation time: 0 hr 47 min 41 sec) 
Heartbeat CPU 0 instructions: 30000000 cycles: 49419042 heartbeat IPC: 0.520309 cumulative IPC: 0.453332 (Simulation time: 0 hr 49 min 25 sec) 
Heartbeat CPU 0 instructions: 31000001 cycles: 51285248 heartbeat IPC: 0.535847 cumulative IPC: 0.456681 (Simulation time: 0 hr 51 min 13 sec) 
Heartbeat CPU 0 instructions: 32000000 cycles: 53189443 heartbeat IPC: 0.525156 cumulative IPC: 0.459404 (Simulation time: 0 hr 52 min 58 sec) 
Heartbeat CPU 0 instructions: 33000000 cycles: 55076174 heartbeat IPC: 0.530017 cumulative IPC: 0.46208 (Simulation time: 0 hr 54 min 42 sec) 
Heartbeat CPU 0 instructions: 34000001 cycles: 56939375 heartbeat IPC: 0.536711 cumulative IPC: 0.464773 (Simulation time: 0 hr 56 min 33 sec) 
Heartbeat CPU 0 instructions: 35000001 cycles: 58818051 heartbeat IPC: 0.53229 cumulative IPC: 0.467143 (Simulation time: 0 hr 58 min 22 sec) 
Heartbeat CPU 0 instructions: 36000000 cycles: 60681802 heartbeat IPC: 0.536552 cumulative IPC: 0.469479 (Simulation time: 1 hr 0 min 12 sec) 
Heartbeat CPU 0 instructions: 37000000 cycles: 62629777 heartbeat IPC: 0.513354 cumulative IPC: 0.47097 (Simulation time: 1 hr 1 min 58 sec) 
Heartbeat CPU 0 instructions: 38000000 cycles: 64524951 heartbeat IPC: 0.527656 cumulative IPC: 0.472784 (Simulation time: 1 hr 3 min 42 sec) 
Heartbeat CPU 0 instructions: 39000001 cycles: 66381368 heartbeat IPC: 0.538673 cumulative IPC: 0.474787 (Simulation time: 1 hr 5 min 37 sec) 
Heartbeat CPU 0 instructions: 40000000 cycles: 68264738 heartbeat IPC: 0.530963 cumulative IPC: 0.476467 (Simulation time: 1 hr 7 min 21 sec) 
Heartbeat CPU 0 instructions: 41000001 cycles: 70188425 heartbeat IPC: 0.519836 cumulative IPC: 0.477753 (Simulation time: 1 hr 9 min 8 sec) 
Heartbeat CPU 0 instructions: 42000001 cycles: 72182387 heartbeat IPC: 0.501514 cumulative IPC: 0.478461 (Simulation time: 1 hr 10 min 47 sec) 
Heartbeat CPU 0 instructions: 43000001 cycles: 74211628 heartbeat IPC: 0.492795 cumulative IPC: 0.478883 (Simulation time: 1 hr 12 min 22 sec) 
Heartbeat CPU 0 instructions: 44000000 cycles: 76268831 heartbeat IPC: 0.486096 cumulative IPC: 0.479092 (Simulation time: 1 hr 14 min 3 sec) 
Heartbeat CPU 0 instructions: 45000000 cycles: 78365340 heartbeat IPC: 0.476983 cumulative IPC: 0.479032 (Simulation time: 1 hr 15 min 40 sec) 
Heartbeat CPU 0 instructions: 46000002 cycles: 80275066 heartbeat IPC: 0.523636 cumulative IPC: 0.480168 (Simulation time: 1 hr 17 min 29 sec) 
Heartbeat CPU 0 instructions: 47000000 cycles: 82200148 heartbeat IPC: 0.519457 cumulative IPC: 0.481151 (Simulation time: 1 hr 19 min 23 sec) 
Heartbeat CPU 0 instructions: 48000000 cycles: 84147446 heartbeat IPC: 0.513532 cumulative IPC: 0.481951 (Simulation time: 1 hr 21 min 6 sec) 
Heartbeat CPU 0 instructions: 49000003 cycles: 86105571 heartbeat IPC: 0.510694 cumulative IPC: 0.482648 (Simulation time: 1 hr 22 min 47 sec) 
Heartbeat CPU 0 instructions: 50000001 cycles: 88020394 heartbeat IPC: 0.52224 cumulative IPC: 0.483564 (Simulation time: 1 hr 24 min 31 sec) 
Heartbeat CPU 0 instructions: 51000003 cycles: 89955789 heartbeat IPC: 0.516691 cumulative IPC: 0.484322 (Simulation time: 1 hr 26 min 18 sec) 
Heartbeat CPU 0 instructions: 52000000 cycles: 91985014 heartbeat IPC: 0.492797 cumulative IPC: 0.48452 (Simulation time: 1 hr 27 min 52 sec) 
Heartbeat CPU 0 instructions: 53000001 cycles: 93966921 heartbeat IPC: 0.504565 cumulative IPC: 0.484968 (Simulation time: 1 hr 29 min 28 sec) 
Heartbeat CPU 0 instructions: 54000003 cycles: 95879930 heartbeat IPC: 0.522738 cumulative IPC: 0.485766 (Simulation time: 1 hr 31 min 17 sec) 
Heartbeat CPU 0 instructions: 55000000 cycles: 97775919 heartbeat IPC: 0.527428 cumulative IPC: 0.48662 (Simulation time: 1 hr 33 min 4 sec) 
Heartbeat CPU 0 instructions: 56000000 cycles: 99698145 heartbeat IPC: 0.52023 cumulative IPC: 0.487304 (Simulation time: 1 hr 34 min 58 sec) 
Heartbeat CPU 0 instructions: 57000000 cycles: 101596247 heartbeat IPC: 0.526842 cumulative IPC: 0.488084 (Simulation time: 1 hr 36 min 46 sec) 
Heartbeat CPU 0 instructions: 58000001 cycles: 103543203 heartbeat IPC: 0.513623 cumulative IPC: 0.48859 (Simulation time: 1 hr 38 min 36 sec) 
Heartbeat CPU 0 instructions: 59000003 cycles: 105489109 heartbeat IPC: 0.5139 cumulative IPC: 0.489081 (Simulation time: 1 hr 40 min 27 sec) 
Heartbeat CPU 0 instructions: 60000000 cycles: 107410779 heartbeat IPC: 0.520379 cumulative IPC: 0.48967 (Simulation time: 1 hr 42 min 19 sec) 
Heartbeat CPU 0 instructions: 61000002 cycles: 109333952 heartbeat IPC: 0.519975 cumulative IPC: 0.490231 (Simulation time: 1 hr 44 min 10 sec) 
Heartbeat CPU 0 instructions: 62000001 cycles: 111251274 heartbeat IPC: 0.52156 cumulative IPC: 0.490798 (Simulation time: 1 hr 46 min 0 sec) 
Heartbeat CPU 0 instructions: 63000001 cycles: 113331961 heartbeat IPC: 0.48061 cumulative IPC: 0.490601 (Simulation time: 1 hr 47 min 38 sec) 
Heartbeat CPU 0 instructions: 64000000 cycles: 115290248 heartbeat IPC: 0.51065 cumulative IPC: 0.490958 (Simulation time: 1 hr 49 min 22 sec) 
Heartbeat CPU 0 instructions: 65000000 cycles: 117234798 heartbeat IPC: 0.514258 cumulative IPC: 0.491363 (Simulation time: 1 hr 51 min 10 sec) 
Heartbeat CPU 0 instructions: 66000000 cycles: 119193679 heartbeat IPC: 0.510496 cumulative IPC: 0.491692 (Simulation time: 1 hr 52 min 53 sec) 
Heartbeat CPU 0 instructions: 67000003 cycles: 121148390 heartbeat IPC: 0.511586 cumulative IPC: 0.492028 (Simulation time: 1 hr 54 min 38 sec) 
Heartbeat CPU 0 instructions: 68000000 cycles: 123082610 heartbeat IPC: 0.517003 cumulative IPC: 0.492438 (Simulation time: 1 hr 56 min 22 sec) 
Heartbeat CPU 0 instructions: 69000000 cycles: 125025066 heartbeat IPC: 0.514812 cumulative IPC: 0.492801 (Simulation time: 1 hr 58 min 3 sec) 
Heartbeat CPU 0 instructions: 70000000 cycles: 126982300 heartbeat IPC: 0.510925 cumulative IPC: 0.493093 (Simulation time: 1 hr 59 min 42 sec) 
Heartbeat CPU 0 instructions: 71000001 cycles: 128951428 heartbeat IPC: 0.50784 cumulative IPC: 0.493327 (Simulation time: 2 hr 1 min 24 sec) 
Heartbeat CPU 0 instructions: 72000000 cycles: 130911421 heartbeat IPC: 0.510205 cumulative IPC: 0.493591 (Simulation time: 2 hr 3 min 5 sec) 
Heartbeat CPU 0 instructions: 73000000 cycles: 132861871 heartbeat IPC: 0.512702 cumulative IPC: 0.493883 (Simulation time: 2 hr 4 min 52 sec) 
Heartbeat CPU 0 instructions: 74000000 cycles: 134811832 heartbeat IPC: 0.512831 cumulative IPC: 0.494168 (Simulation time: 2 hr 6 min 38 sec) 
Heartbeat CPU 0 instructions: 75000001 cycles: 136726724 heartbeat IPC: 0.522223 cumulative IPC: 0.494577 (Simulation time: 2 hr 8 min 21 sec) 
Heartbeat CPU 0 instructions: 76000000 cycles: 138660596 heartbeat IPC: 0.517097 cumulative IPC: 0.494904 (Simulation time: 2 hr 10 min 11 sec) 
Heartbeat CPU 0 instructions: 77000001 cycles: 140710079 heartbeat IPC: 0.487928 cumulative IPC: 0.494798 (Simulation time: 2 hr 11 min 47 sec) 
Heartbeat CPU 0 instructions: 78000000 cycles: 142685778 heartbeat IPC: 0.506149 cumulative IPC: 0.494961 (Simulation time: 2 hr 13 min 20 sec) 
Heartbeat CPU 0 instructions: 79000003 cycles: 144746118 heartbeat IPC: 0.485358 cumulative IPC: 0.494819 (Simulation time: 2 hr 14 min 56 sec) 
Heartbeat CPU 0 instructions: 80000000 cycles: 146917629 heartbeat IPC: 0.460507 cumulative IPC: 0.494293 (Simulation time: 2 hr 16 min 25 sec) 
Heartbeat CPU 0 instructions: 81000003 cycles: 149045264 heartbeat IPC: 0.470007 cumulative IPC: 0.493934 (Simulation time: 2 hr 17 min 48 sec) 
Heartbeat CPU 0 instructions: 82000000 cycles: 151103897 heartbeat IPC: 0.485758 cumulative IPC: 0.493818 (Simulation time: 2 hr 19 min 20 sec) 
Heartbeat CPU 0 instructions: 83000000 cycles: 153105155 heartbeat IPC: 0.499686 cumulative IPC: 0.493898 (Simulation time: 2 hr 20 min 48 sec) 
Heartbeat CPU 0 instructions: 84000000 cycles: 155096262 heartbeat IPC: 0.502233 cumulative IPC: 0.494009 (Simulation time: 2 hr 22 min 18 sec) 
Heartbeat CPU 0 instructions: 85000001 cycles: 157071385 heartbeat IPC: 0.506298 cumulative IPC: 0.494168 (Simulation time: 2 hr 23 min 48 sec) 
Heartbeat CPU 0 instructions: 86000002 cycles: 159039949 heartbeat IPC: 0.507985 cumulative IPC: 0.494345 (Simulation time: 2 hr 25 min 17 sec) 
Heartbeat CPU 0 instructions: 87000000 cycles: 161053214 heartbeat IPC: 0.496705 cumulative IPC: 0.494376 (Simulation time: 2 hr 26 min 36 sec) 
Heartbeat CPU 0 instructions: 88000000 cycles: 163116923 heartbeat IPC: 0.484564 cumulative IPC: 0.494248 (Simulation time: 2 hr 27 min 46 sec) 
Heartbeat CPU 0 instructions: 89000003 cycles: 165105167 heartbeat IPC: 0.502958 cumulative IPC: 0.494356 (Simulation time: 2 hr 28 min 53 sec) 
Heartbeat CPU 0 instructions: 90000000 cycles: 167080804 heartbeat IPC: 0.506164 cumulative IPC: 0.4945 (Simulation time: 2 hr 30 min 4 sec) 
Heartbeat CPU 0 instructions: 91000000 cycles: 169069813 heartbeat IPC: 0.502763 cumulative IPC: 0.494601 (Simulation time: 2 hr 31 min 9 sec) 
Heartbeat CPU 0 instructions: 92000000 cycles: 171082327 heartbeat IPC: 0.496891 cumulative IPC: 0.494628 (Simulation time: 2 hr 32 min 6 sec) 
Heartbeat CPU 0 instructions: 93000003 cycles: 173042245 heartbeat IPC: 0.510227 cumulative IPC: 0.494811 (Simulation time: 2 hr 33 min 7 sec) 
Heartbeat CPU 0 instructions: 94000000 cycles: 175003282 heartbeat IPC: 0.509933 cumulative IPC: 0.494985 (Simulation time: 2 hr 34 min 6 sec) 
Heartbeat CPU 0 instructions: 95000000 cycles: 176981756 heartbeat IPC: 0.50544 cumulative IPC: 0.495106 (Simulation time: 2 hr 35 min 3 sec) 
Heartbeat CPU 0 instructions: 96000000 cycles: 178986115 heartbeat IPC: 0.498913 cumulative IPC: 0.49515 (Simulation time: 2 hr 35 min 57 sec) 
Heartbeat CPU 0 instructions: 97000000 cycles: 180990739 heartbeat IPC: 0.498847 cumulative IPC: 0.495192 (Simulation time: 2 hr 36 min 48 sec) 
Heartbeat CPU 0 instructions: 98000000 cycles: 182975528 heartbeat IPC: 0.503832 cumulative IPC: 0.495288 (Simulation time: 2 hr 37 min 40 sec) 
Heartbeat CPU 0 instructions: 99000000 cycles: 185062428 heartbeat IPC: 0.47918 cumulative IPC: 0.495101 (Simulation time: 2 hr 38 min 25 sec) 
Heartbeat CPU 0 instructions: 100000000 cycles: 187074102 heartbeat IPC: 0.497098 cumulative IPC: 0.495124 (Simulation time: 2 hr 39 min 11 sec) 
Heartbeat CPU 0 instructions: 101000000 cycles: 189134679 heartbeat IPC: 0.485301 cumulative IPC: 0.495013 (Simulation time: 2 hr 40 min 3 sec) 
Heartbeat CPU 0 instructions: 102000003 cycles: 191152640 heartbeat IPC: 0.495551 cumulative IPC: 0.495019 (Simulation time: 2 hr 40 min 48 sec) 
Heartbeat CPU 0 instructions: 103000000 cycles: 193116670 heartbeat IPC: 0.509156 cumulative IPC: 0.495167 (Simulation time: 2 hr 41 min 33 sec) 
Heartbeat CPU 0 instructions: 104000000 cycles: 195068096 heartbeat IPC: 0.512446 cumulative IPC: 0.495345 (Simulation time: 2 hr 42 min 18 sec) 
Heartbeat CPU 0 instructions: 105000002 cycles: 197017818 heartbeat IPC: 0.512895 cumulative IPC: 0.495523 (Simulation time: 2 hr 43 min 0 sec) 
Heartbeat CPU 0 instructions: 106000003 cycles: 198947675 heartbeat IPC: 0.518174 cumulative IPC: 0.495749 (Simulation time: 2 hr 43 min 44 sec) 
Heartbeat CPU 0 instructions: 107000000 cycles: 200883546 heartbeat IPC: 0.516562 cumulative IPC: 0.495955 (Simulation time: 2 hr 44 min 25 sec) 
Heartbeat CPU 0 instructions: 108000000 cycles: 202952375 heartbeat IPC: 0.483365 cumulative IPC: 0.495823 (Simulation time: 2 hr 45 min 1 sec) 
Heartbeat CPU 0 instructions: 109000003 cycles: 204995995 heartbeat IPC: 0.489329 cumulative IPC: 0.495757 (Simulation time: 2 hr 45 min 36 sec) 
Heartbeat CPU 0 instructions: 110000002 cycles: 207000566 heartbeat IPC: 0.498859 cumulative IPC: 0.495788 (Simulation time: 2 hr 46 min 9 sec) 
Finished CPU 0 instructions: 100000001 cycles: 201699281 cummulative IPC: 0.495788 (Simulation time: 2 hr 46 min 9 sec) 

ChampSim completed all CPUs

Region of Interest Statistics

CPU 0 cummulative IPC: 0.495788 instructions: 100000001 cycles: 201699281
LLC TOTAL     ACCESS:     479215  HIT:     179334  MISS:     299881
LLC LOAD      ACCESS:     108309  HIT:      46960  MISS:      61349
LLC RFO       ACCESS:      72099  HIT:      11731  MISS:      60368
LLC PREFETCH  ACCESS:     138948  HIT:      49817  MISS:      89131
LLC WRITEBACK ACCESS:     159859  HIT:      70826  MISS:      89033
Insertion Distribution: 
	LOAD 12228 0 0 0 0 0 0 0 0 0 0 0 0 0 0 0 0 0 0 0 0 0 0 0 0 0 0 0 0 0 27945 35280 
	RFO 0 0 0 0 0 0 0 0 0 0 0 0 0 0 0 0 0 0 0 0 0 0 0 0 0 0 0 0 0 0 2793 61453 
	PREF 0 7435 0 0 0 0 0 0 0 0 0 0 0 0 0 0 0 0 0 0 0 0 0 0 0 0 0 0 0 0 25273 77413 
	WRITEBACK 0 0 0 0 0 0 0 0 0 0 0 0 0 0 0 0 0 0 0 0 0 0 0 0 0 0 0 0 0 0 0 90677 
Total Prefetch Downgrades: 8103
