
*** ChampSim Multicore Out-of-Order Simulator ***

Warmup Instructions: 10000000
Simulation Instructions: 100000000
Configuration: 2
Number of CPUs: 1
LLC sets: 2048
LLC ways: 16
Off-chip DRAM Channels: 1 Width: 64-bit Data Rate: 1600 MT/s

CPU 0 runs /datasets/cs240c-wi22-a00-public/data/Assignment2-gz/lbm_94B.trace.gz
CPU 0 L1D next line prefetcher
CPU 0 L2C IP-based stride prefetcher
Initialize SRRIP state
Heartbeat CPU 0 instructions: 1000000 cycles: 422068 heartbeat IPC: 2.36929 cumulative IPC: 2.36929 (Simulation time: 0 hr 1 min 30 sec) 
Heartbeat CPU 0 instructions: 2000000 cycles: 812399 heartbeat IPC: 2.56193 cumulative IPC: 2.46184 (Simulation time: 0 hr 2 min 48 sec) 
Heartbeat CPU 0 instructions: 3000000 cycles: 1211539 heartbeat IPC: 2.50539 cumulative IPC: 2.47619 (Simulation time: 0 hr 4 min 10 sec) 
Heartbeat CPU 0 instructions: 4000000 cycles: 1631525 heartbeat IPC: 2.38103 cumulative IPC: 2.45169 (Simulation time: 0 hr 5 min 34 sec) 
Heartbeat CPU 0 instructions: 5000001 cycles: 2021767 heartbeat IPC: 2.56252 cumulative IPC: 2.47308 (Simulation time: 0 hr 6 min 53 sec) 
Heartbeat CPU 0 instructions: 6000000 cycles: 2422437 heartbeat IPC: 2.49582 cumulative IPC: 2.47684 (Simulation time: 0 hr 8 min 17 sec) 
Heartbeat CPU 0 instructions: 7000001 cycles: 2840577 heartbeat IPC: 2.39155 cumulative IPC: 2.46429 (Simulation time: 0 hr 9 min 37 sec) 
Heartbeat CPU 0 instructions: 8000000 cycles: 3230811 heartbeat IPC: 2.56256 cumulative IPC: 2.47616 (Simulation time: 0 hr 10 min 57 sec) 
Heartbeat CPU 0 instructions: 9000003 cycles: 3631843 heartbeat IPC: 2.49357 cumulative IPC: 2.47808 (Simulation time: 0 hr 12 min 16 sec) 
Heartbeat CPU 0 instructions: 10000000 cycles: 4048414 heartbeat IPC: 2.40054 cumulative IPC: 2.4701 (Simulation time: 0 hr 13 min 36 sec) 

Warmup complete CPU 0 instructions: 10000004 cycles: 4048415 (Simulation time: 0 hr 13 min 36 sec) 

Heartbeat CPU 0 instructions: 11000003 cycles: 5543643 heartbeat IPC: 0.668796 cumulative IPC: 0.668794 (Simulation time: 0 hr 15 min 10 sec) 
Heartbeat CPU 0 instructions: 12000000 cycles: 7156438 heartbeat IPC: 0.62004 cumulative IPC: 0.643495 (Simulation time: 0 hr 16 min 51 sec) 
Heartbeat CPU 0 instructions: 13000000 cycles: 8846277 heartbeat IPC: 0.591772 cumulative IPC: 0.625278 (Simulation time: 0 hr 18 min 30 sec) 
Heartbeat CPU 0 instructions: 14000000 cycles: 10342349 heartbeat IPC: 0.668417 cumulative IPC: 0.635532 (Simulation time: 0 hr 19 min 59 sec) 
Heartbeat CPU 0 instructions: 15000003 cycles: 11934134 heartbeat IPC: 0.628227 cumulative IPC: 0.634057 (Simulation time: 0 hr 21 min 31 sec) 
Heartbeat CPU 0 instructions: 16000000 cycles: 13651913 heartbeat IPC: 0.582145 cumulative IPC: 0.624772 (Simulation time: 0 hr 23 min 4 sec) 
Heartbeat CPU 0 instructions: 17000001 cycles: 15163928 heartbeat IPC: 0.66137 cumulative IPC: 0.62975 (Simulation time: 0 hr 24 min 37 sec) 
Heartbeat CPU 0 instructions: 18000001 cycles: 16766433 heartbeat IPC: 0.624023 cumulative IPC: 0.629029 (Simulation time: 0 hr 26 min 9 sec) 
Heartbeat CPU 0 instructions: 19000000 cycles: 18478170 heartbeat IPC: 0.584201 cumulative IPC: 0.623711 (Simulation time: 0 hr 27 min 42 sec) 
Heartbeat CPU 0 instructions: 20000000 cycles: 20006584 heartbeat IPC: 0.654273 cumulative IPC: 0.626638 (Simulation time: 0 hr 29 min 15 sec) 
Heartbeat CPU 0 instructions: 21000001 cycles: 21566160 heartbeat IPC: 0.641201 cumulative IPC: 0.627935 (Simulation time: 0 hr 30 min 46 sec) 
Heartbeat CPU 0 instructions: 22000000 cycles: 23278936 heartbeat IPC: 0.583847 cumulative IPC: 0.624008 (Simulation time: 0 hr 32 min 25 sec) 
Heartbeat CPU 0 instructions: 23000000 cycles: 24800247 heartbeat IPC: 0.657328 cumulative IPC: 0.626451 (Simulation time: 0 hr 33 min 53 sec) 
Heartbeat CPU 0 instructions: 24000000 cycles: 26364464 heartbeat IPC: 0.639297 cumulative IPC: 0.627351 (Simulation time: 0 hr 35 min 21 sec) 
Heartbeat CPU 0 instructions: 25000000 cycles: 28038461 heartbeat IPC: 0.597373 cumulative IPC: 0.625259 (Simulation time: 0 hr 36 min 55 sec) 
Heartbeat CPU 0 instructions: 26000000 cycles: 29544377 heartbeat IPC: 0.664048 cumulative IPC: 0.62755 (Simulation time: 0 hr 38 min 24 sec) 
Heartbeat CPU 0 instructions: 27000002 cycles: 31101910 heartbeat IPC: 0.642042 cumulative IPC: 0.628385 (Simulation time: 0 hr 40 min 4 sec) 
Heartbeat CPU 0 instructions: 28000000 cycles: 32781612 heartbeat IPC: 0.595343 cumulative IPC: 0.626453 (Simulation time: 0 hr 41 min 43 sec) 
Heartbeat CPU 0 instructions: 29000000 cycles: 34295948 heartbeat IPC: 0.660355 cumulative IPC: 0.62815 (Simulation time: 0 hr 43 min 17 sec) 
Heartbeat CPU 0 instructions: 30000000 cycles: 35864995 heartbeat IPC: 0.63733 cumulative IPC: 0.628603 (Simulation time: 0 hr 44 min 48 sec) 
Heartbeat CPU 0 instructions: 31000001 cycles: 37514056 heartbeat IPC: 0.606406 cumulative IPC: 0.627509 (Simulation time: 0 hr 46 min 22 sec) 
Heartbeat CPU 0 instructions: 32000000 cycles: 39016906 heartbeat IPC: 0.665402 cumulative IPC: 0.629138 (Simulation time: 0 hr 47 min 55 sec) 
Heartbeat CPU 0 instructions: 33000000 cycles: 40571400 heartbeat IPC: 0.643296 cumulative IPC: 0.62974 (Simulation time: 0 hr 49 min 28 sec) 
Heartbeat CPU 0 instructions: 34000003 cycles: 42198112 heartbeat IPC: 0.614739 cumulative IPC: 0.629101 (Simulation time: 0 hr 51 min 4 sec) 
Heartbeat CPU 0 instructions: 35000003 cycles: 43705323 heartbeat IPC: 0.663477 cumulative IPC: 0.630407 (Simulation time: 0 hr 52 min 37 sec) 
Heartbeat CPU 0 instructions: 36000000 cycles: 45258998 heartbeat IPC: 0.643633 cumulative IPC: 0.630906 (Simulation time: 0 hr 54 min 9 sec) 
Heartbeat CPU 0 instructions: 37000003 cycles: 46846949 heartbeat IPC: 0.629744 cumulative IPC: 0.630863 (Simulation time: 0 hr 55 min 41 sec) 
Heartbeat CPU 0 instructions: 38000001 cycles: 48355079 heartbeat IPC: 0.663072 cumulative IPC: 0.631959 (Simulation time: 0 hr 57 min 12 sec) 
Heartbeat CPU 0 instructions: 39000002 cycles: 49872934 heartbeat IPC: 0.658825 cumulative IPC: 0.632849 (Simulation time: 0 hr 58 min 43 sec) 
Heartbeat CPU 0 instructions: 40000000 cycles: 51458603 heartbeat IPC: 0.630647 cumulative IPC: 0.632775 (Simulation time: 1 hr 0 min 15 sec) 
Heartbeat CPU 0 instructions: 41000003 cycles: 53003630 heartbeat IPC: 0.64724 cumulative IPC: 0.633232 (Simulation time: 1 hr 1 min 51 sec) 
Heartbeat CPU 0 instructions: 42000003 cycles: 54504303 heartbeat IPC: 0.666368 cumulative IPC: 0.634217 (Simulation time: 1 hr 3 min 26 sec) 
Heartbeat CPU 0 instructions: 43000001 cycles: 56053718 heartbeat IPC: 0.645404 cumulative IPC: 0.634551 (Simulation time: 1 hr 5 min 0 sec) 
Heartbeat CPU 0 instructions: 44000000 cycles: 57624771 heartbeat IPC: 0.636515 cumulative IPC: 0.634608 (Simulation time: 1 hr 6 min 40 sec) 
Heartbeat CPU 0 instructions: 45000002 cycles: 59138792 heartbeat IPC: 0.660494 cumulative IPC: 0.63532 (Simulation time: 1 hr 8 min 13 sec) 
Heartbeat CPU 0 instructions: 46000003 cycles: 60683258 heartbeat IPC: 0.647474 cumulative IPC: 0.635651 (Simulation time: 1 hr 9 min 49 sec) 
Heartbeat CPU 0 instructions: 47000001 cycles: 62248776 heartbeat IPC: 0.638765 cumulative IPC: 0.635735 (Simulation time: 1 hr 11 min 27 sec) 
Heartbeat CPU 0 instructions: 48000000 cycles: 63739254 heartbeat IPC: 0.670925 cumulative IPC: 0.636614 (Simulation time: 1 hr 13 min 4 sec) 
Heartbeat CPU 0 instructions: 49000000 cycles: 65289914 heartbeat IPC: 0.644887 cumulative IPC: 0.636823 (Simulation time: 1 hr 14 min 41 sec) 
Heartbeat CPU 0 instructions: 50000003 cycles: 66855131 heartbeat IPC: 0.638891 cumulative IPC: 0.636875 (Simulation time: 1 hr 16 min 17 sec) 
Heartbeat CPU 0 instructions: 51000003 cycles: 68327211 heartbeat IPC: 0.679311 cumulative IPC: 0.637846 (Simulation time: 1 hr 17 min 47 sec) 
Heartbeat CPU 0 instructions: 52000000 cycles: 69858136 heartbeat IPC: 0.653198 cumulative IPC: 0.638204 (Simulation time: 1 hr 19 min 16 sec) 
Heartbeat CPU 0 instructions: 53000001 cycles: 71407285 heartbeat IPC: 0.645516 cumulative IPC: 0.638372 (Simulation time: 1 hr 20 min 50 sec) 
Heartbeat CPU 0 instructions: 54000000 cycles: 72916920 heartbeat IPC: 0.662411 cumulative IPC: 0.638899 (Simulation time: 1 hr 22 min 20 sec) 
Heartbeat CPU 0 instructions: 55000003 cycles: 74437747 heartbeat IPC: 0.657539 cumulative IPC: 0.639301 (Simulation time: 1 hr 23 min 52 sec) 
Heartbeat CPU 0 instructions: 56000000 cycles: 75975091 heartbeat IPC: 0.650471 cumulative IPC: 0.63954 (Simulation time: 1 hr 25 min 24 sec) 
Heartbeat CPU 0 instructions: 57000003 cycles: 77468437 heartbeat IPC: 0.669639 cumulative IPC: 0.640152 (Simulation time: 1 hr 26 min 53 sec) 
Heartbeat CPU 0 instructions: 58000003 cycles: 78993160 heartbeat IPC: 0.655857 cumulative IPC: 0.640472 (Simulation time: 1 hr 28 min 18 sec) 
Heartbeat CPU 0 instructions: 59000002 cycles: 80524798 heartbeat IPC: 0.652895 cumulative IPC: 0.640721 (Simulation time: 1 hr 29 min 49 sec) 
Heartbeat CPU 0 instructions: 60000000 cycles: 82005897 heartbeat IPC: 0.675173 cumulative IPC: 0.641375 (Simulation time: 1 hr 31 min 19 sec) 
Heartbeat CPU 0 instructions: 61000000 cycles: 83513750 heartbeat IPC: 0.663195 cumulative IPC: 0.641789 (Simulation time: 1 hr 32 min 51 sec) 
Heartbeat CPU 0 instructions: 62000000 cycles: 85014329 heartbeat IPC: 0.666409 cumulative IPC: 0.642246 (Simulation time: 1 hr 34 min 24 sec) 
Heartbeat CPU 0 instructions: 63000003 cycles: 86553176 heartbeat IPC: 0.649839 cumulative IPC: 0.642387 (Simulation time: 1 hr 35 min 54 sec) 
Heartbeat CPU 0 instructions: 64000000 cycles: 88050540 heartbeat IPC: 0.667838 cumulative IPC: 0.642841 (Simulation time: 1 hr 37 min 24 sec) 
Heartbeat CPU 0 instructions: 65000003 cycles: 89564890 heartbeat IPC: 0.660351 cumulative IPC: 0.643151 (Simulation time: 1 hr 38 min 53 sec) 
Heartbeat CPU 0 instructions: 66000002 cycles: 91094919 heartbeat IPC: 0.653582 cumulative IPC: 0.643334 (Simulation time: 1 hr 40 min 26 sec) 
Heartbeat CPU 0 instructions: 67000002 cycles: 92606837 heartbeat IPC: 0.661412 cumulative IPC: 0.643643 (Simulation time: 1 hr 41 min 57 sec) 
Heartbeat CPU 0 instructions: 68000000 cycles: 94098139 heartbeat IPC: 0.670554 cumulative IPC: 0.644089 (Simulation time: 1 hr 43 min 27 sec) 
Heartbeat CPU 0 instructions: 69000000 cycles: 95616213 heartbeat IPC: 0.658729 cumulative IPC: 0.644331 (Simulation time: 1 hr 45 min 0 sec) 
Heartbeat CPU 0 instructions: 70000003 cycles: 97143729 heartbeat IPC: 0.65466 cumulative IPC: 0.644501 (Simulation time: 1 hr 46 min 33 sec) 
Heartbeat CPU 0 instructions: 71000001 cycles: 98631530 heartbeat IPC: 0.672132 cumulative IPC: 0.644935 (Simulation time: 1 hr 48 min 2 sec) 
Heartbeat CPU 0 instructions: 72000000 cycles: 100145142 heartbeat IPC: 0.660671 cumulative IPC: 0.645183 (Simulation time: 1 hr 49 min 33 sec) 
Heartbeat CPU 0 instructions: 73000001 cycles: 101691191 heartbeat IPC: 0.646811 cumulative IPC: 0.645209 (Simulation time: 1 hr 51 min 7 sec) 
Heartbeat CPU 0 instructions: 74000001 cycles: 103184711 heartbeat IPC: 0.669559 cumulative IPC: 0.645576 (Simulation time: 1 hr 52 min 32 sec) 
Heartbeat CPU 0 instructions: 75000003 cycles: 104674028 heartbeat IPC: 0.67145 cumulative IPC: 0.645959 (Simulation time: 1 hr 54 min 5 sec) 
Heartbeat CPU 0 instructions: 76000000 cycles: 106200221 heartbeat IPC: 0.655223 cumulative IPC: 0.646097 (Simulation time: 1 hr 55 min 40 sec) 
Heartbeat CPU 0 instructions: 77000002 cycles: 107693031 heartbeat IPC: 0.669879 cumulative IPC: 0.64644 (Simulation time: 1 hr 57 min 12 sec) 
Heartbeat CPU 0 instructions: 78000003 cycles: 109171406 heartbeat IPC: 0.676419 cumulative IPC: 0.646861 (Simulation time: 1 hr 58 min 36 sec) 
Heartbeat CPU 0 instructions: 79000000 cycles: 110694708 heartbeat IPC: 0.656467 cumulative IPC: 0.646999 (Simulation time: 2 hr 0 min 6 sec) 
Heartbeat CPU 0 instructions: 80000000 cycles: 112229256 heartbeat IPC: 0.651658 cumulative IPC: 0.647065 (Simulation time: 2 hr 1 min 40 sec) 
Heartbeat CPU 0 instructions: 81000000 cycles: 113723556 heartbeat IPC: 0.66921 cumulative IPC: 0.647366 (Simulation time: 2 hr 3 min 10 sec) 
Heartbeat CPU 0 instructions: 82000000 cycles: 115194246 heartbeat IPC: 0.679953 cumulative IPC: 0.647798 (Simulation time: 2 hr 4 min 44 sec) 
Heartbeat CPU 0 instructions: 83000003 cycles: 116713876 heartbeat IPC: 0.658057 cumulative IPC: 0.647936 (Simulation time: 2 hr 6 min 11 sec) 
Heartbeat CPU 0 instructions: 84000000 cycles: 118211150 heartbeat IPC: 0.667878 cumulative IPC: 0.648197 (Simulation time: 2 hr 7 min 40 sec) 
Heartbeat CPU 0 instructions: 85000001 cycles: 119675612 heartbeat IPC: 0.682845 cumulative IPC: 0.648636 (Simulation time: 2 hr 9 min 6 sec) 
Heartbeat CPU 0 instructions: 86000003 cycles: 121212417 heartbeat IPC: 0.650702 cumulative IPC: 0.648663 (Simulation time: 2 hr 10 min 36 sec) 
Heartbeat CPU 0 instructions: 87000000 cycles: 122715360 heartbeat IPC: 0.665359 cumulative IPC: 0.648875 (Simulation time: 2 hr 12 min 3 sec) 
Heartbeat CPU 0 instructions: 88000000 cycles: 124229901 heartbeat IPC: 0.660266 cumulative IPC: 0.649018 (Simulation time: 2 hr 13 min 30 sec) 
Heartbeat CPU 0 instructions: 89000003 cycles: 125684541 heartbeat IPC: 0.687457 cumulative IPC: 0.649478 (Simulation time: 2 hr 14 min 56 sec) 
Heartbeat CPU 0 instructions: 90000003 cycles: 127207841 heartbeat IPC: 0.65647 cumulative IPC: 0.649565 (Simulation time: 2 hr 16 min 20 sec) 
Heartbeat CPU 0 instructions: 91000002 cycles: 128723109 heartbeat IPC: 0.659949 cumulative IPC: 0.649691 (Simulation time: 2 hr 17 min 43 sec) 
Heartbeat CPU 0 instructions: 92000000 cycles: 130207858 heartbeat IPC: 0.673513 cumulative IPC: 0.649971 (Simulation time: 2 hr 19 min 6 sec) 
Heartbeat CPU 0 instructions: 93000003 cycles: 131710682 heartbeat IPC: 0.665416 cumulative IPC: 0.650153 (Simulation time: 2 hr 20 min 27 sec) 
Heartbeat CPU 0 instructions: 94000001 cycles: 133209816 heartbeat IPC: 0.66705 cumulative IPC: 0.650349 (Simulation time: 2 hr 21 min 49 sec) 
Heartbeat CPU 0 instructions: 95000001 cycles: 134726967 heartbeat IPC: 0.65913 cumulative IPC: 0.650451 (Simulation time: 2 hr 23 min 13 sec) 
Heartbeat CPU 0 instructions: 96000000 cycles: 136201628 heartbeat IPC: 0.678121 cumulative IPC: 0.65076 (Simulation time: 2 hr 24 min 34 sec) 
Heartbeat CPU 0 instructions: 97000000 cycles: 137740677 heartbeat IPC: 0.649752 cumulative IPC: 0.650748 (Simulation time: 2 hr 25 min 51 sec) 
Heartbeat CPU 0 instructions: 98000002 cycles: 139244162 heartbeat IPC: 0.665123 cumulative IPC: 0.650908 (Simulation time: 2 hr 27 min 1 sec) 
Heartbeat CPU 0 instructions: 99000001 cycles: 140744598 heartbeat IPC: 0.666472 cumulative IPC: 0.651079 (Simulation time: 2 hr 28 min 5 sec) 
Heartbeat CPU 0 instructions: 100000000 cycles: 142262579 heartbeat IPC: 0.658769 cumulative IPC: 0.651163 (Simulation time: 2 hr 29 min 4 sec) 
Heartbeat CPU 0 instructions: 101000003 cycles: 143770262 heartbeat IPC: 0.663271 cumulative IPC: 0.651294 (Simulation time: 2 hr 30 min 0 sec) 
Heartbeat CPU 0 instructions: 102000002 cycles: 145284704 heartbeat IPC: 0.660309 cumulative IPC: 0.651391 (Simulation time: 2 hr 31 min 0 sec) 
Heartbeat CPU 0 instructions: 103000000 cycles: 146832292 heartbeat IPC: 0.646165 cumulative IPC: 0.651334 (Simulation time: 2 hr 31 min 52 sec) 
Heartbeat CPU 0 instructions: 104000000 cycles: 148305983 heartbeat IPC: 0.678568 cumulative IPC: 0.651612 (Simulation time: 2 hr 32 min 43 sec) 
Heartbeat CPU 0 instructions: 105000002 cycles: 149802680 heartbeat IPC: 0.668139 cumulative IPC: 0.651782 (Simulation time: 2 hr 33 min 32 sec) 
Heartbeat CPU 0 instructions: 106000001 cycles: 151292121 heartbeat IPC: 0.671392 cumulative IPC: 0.65198 (Simulation time: 2 hr 34 min 21 sec) 
Heartbeat CPU 0 instructions: 107000000 cycles: 152808343 heartbeat IPC: 0.659533 cumulative IPC: 0.652057 (Simulation time: 2 hr 35 min 9 sec) 
Heartbeat CPU 0 instructions: 108000000 cycles: 154300515 heartbeat IPC: 0.670164 cumulative IPC: 0.652237 (Simulation time: 2 hr 35 min 53 sec) 
Heartbeat CPU 0 instructions: 109000002 cycles: 155800382 heartbeat IPC: 0.666727 cumulative IPC: 0.65238 (Simulation time: 2 hr 36 min 42 sec) 
Heartbeat CPU 0 instructions: 110000000 cycles: 157333066 heartbeat IPC: 0.652449 cumulative IPC: 0.652381 (Simulation time: 2 hr 37 min 31 sec) 
Finished CPU 0 instructions: 100000000 cycles: 153284652 cummulative IPC: 0.652381 (Simulation time: 2 hr 37 min 31 sec) 

ChampSim completed all CPUs

Region of Interest Statistics

CPU 0 cummulative IPC: 0.652381 instructions: 100000000 cycles: 153284652
LLC TOTAL     ACCESS:    5500532  HIT:     744861  MISS:    4755671
LLC LOAD      ACCESS:     395207  HIT:      19660  MISS:     375547
LLC RFO       ACCESS:    2345795  HIT:     219852  MISS:    2125943
LLC PREFETCH  ACCESS:     413406  HIT:      25346  MISS:     388060
LLC WRITEBACK ACCESS:    2346124  HIT:     480003  MISS:    1866121
Insertion Distribution: 
	LOAD 0 0 0 0 0 0 0 0 0 0 0 0 0 0 0 0 0 0 0 0 0 0 0 0 0 0 0 0 0 0 2666 408023 
	RFO 85764 0 0 0 0 0 0 0 0 0 0 0 0 0 0 0 0 0 0 0 0 0 0 0 0 0 0 0 0 0 204238 2055205 
	PREF 0 8476 0 0 0 0 0 0 0 0 0 0 0 0 0 0 0 0 0 0 0 0 0 0 0 0 0 0 0 0 58434 371810 
	WRITEBACK 0 0 0 0 0 0 0 0 0 0 0 0 0 0 0 0 0 0 0 0 0 0 0 0 0 0 0 0 0 0 0 2000818 
Total Prefetch Downgrades: 19560
