
*** ChampSim Multicore Out-of-Order Simulator ***

Warmup Instructions: 10000000
Simulation Instructions: 100000000
Configuration: 2
Number of CPUs: 1
LLC sets: 2048
LLC ways: 16
Off-chip DRAM Channels: 1 Width: 64-bit Data Rate: 1600 MT/s

CPU 0 runs /datasets/cs240c-wi22-a00-public/data/Assignment2-gz/mcf_250B.trace.gz
CPU 0 L1D next line prefetcher
CPU 0 L2C IP-based stride prefetcher
Initialize SRRIP state
Heartbeat CPU 0 instructions: 1000000 cycles: 532496 heartbeat IPC: 1.87795 cumulative IPC: 1.87795 (Simulation time: 0 hr 1 min 59 sec) 
Heartbeat CPU 0 instructions: 2000003 cycles: 1045005 heartbeat IPC: 1.95119 cumulative IPC: 1.91387 (Simulation time: 0 hr 3 min 58 sec) 
Heartbeat CPU 0 instructions: 3000002 cycles: 1540901 heartbeat IPC: 2.01655 cumulative IPC: 1.94691 (Simulation time: 0 hr 5 min 50 sec) 
Heartbeat CPU 0 instructions: 4000000 cycles: 2050832 heartbeat IPC: 1.96105 cumulative IPC: 1.95043 (Simulation time: 0 hr 7 min 49 sec) 
Heartbeat CPU 0 instructions: 5000002 cycles: 2555678 heartbeat IPC: 1.98081 cumulative IPC: 1.95643 (Simulation time: 0 hr 9 min 47 sec) 
Heartbeat CPU 0 instructions: 6000002 cycles: 3059600 heartbeat IPC: 1.98443 cumulative IPC: 1.96104 (Simulation time: 0 hr 11 min 42 sec) 
Heartbeat CPU 0 instructions: 7000002 cycles: 3597271 heartbeat IPC: 1.85987 cumulative IPC: 1.94592 (Simulation time: 0 hr 13 min 33 sec) 
Heartbeat CPU 0 instructions: 8000000 cycles: 4111074 heartbeat IPC: 1.94627 cumulative IPC: 1.94596 (Simulation time: 0 hr 15 min 28 sec) 
Heartbeat CPU 0 instructions: 9000002 cycles: 4624108 heartbeat IPC: 1.94919 cumulative IPC: 1.94632 (Simulation time: 0 hr 17 min 27 sec) 
Heartbeat CPU 0 instructions: 10000000 cycles: 5133953 heartbeat IPC: 1.96138 cumulative IPC: 1.94782 (Simulation time: 0 hr 19 min 16 sec) 

Warmup complete CPU 0 instructions: 10000003 cycles: 5133954 (Simulation time: 0 hr 19 min 16 sec) 

Heartbeat CPU 0 instructions: 11000001 cycles: 13926494 heartbeat IPC: 0.113733 cumulative IPC: 0.113733 (Simulation time: 0 hr 21 min 47 sec) 
Heartbeat CPU 0 instructions: 12000000 cycles: 26757518 heartbeat IPC: 0.077936 cumulative IPC: 0.0924916 (Simulation time: 0 hr 25 min 9 sec) 
Heartbeat CPU 0 instructions: 13000001 cycles: 38158287 heartbeat IPC: 0.0877135 cumulative IPC: 0.090842 (Simulation time: 0 hr 28 min 3 sec) 
Heartbeat CPU 0 instructions: 14000003 cycles: 46767134 heartbeat IPC: 0.11616 cumulative IPC: 0.0960772 (Simulation time: 0 hr 30 min 39 sec) 
Heartbeat CPU 0 instructions: 15000002 cycles: 55586521 heartbeat IPC: 0.113386 cumulative IPC: 0.099103 (Simulation time: 0 hr 33 min 21 sec) 
Heartbeat CPU 0 instructions: 16000000 cycles: 63709947 heartbeat IPC: 0.123101 cumulative IPC: 0.102431 (Simulation time: 0 hr 35 min 51 sec) 
Heartbeat CPU 0 instructions: 17000000 cycles: 72094378 heartbeat IPC: 0.119269 cumulative IPC: 0.104539 (Simulation time: 0 hr 38 min 25 sec) 
Heartbeat CPU 0 instructions: 18000002 cycles: 80016915 heartbeat IPC: 0.126222 cumulative IPC: 0.106833 (Simulation time: 0 hr 41 min 6 sec) 
Heartbeat CPU 0 instructions: 19000000 cycles: 88234497 heartbeat IPC: 0.12169 cumulative IPC: 0.108303 (Simulation time: 0 hr 43 min 50 sec) 
Heartbeat CPU 0 instructions: 20000000 cycles: 96317763 heartbeat IPC: 0.123712 cumulative IPC: 0.109669 (Simulation time: 0 hr 46 min 26 sec) 
Heartbeat CPU 0 instructions: 21000000 cycles: 104026273 heartbeat IPC: 0.129727 cumulative IPC: 0.111232 (Simulation time: 0 hr 48 min 58 sec) 
Heartbeat CPU 0 instructions: 22000000 cycles: 111733428 heartbeat IPC: 0.12975 cumulative IPC: 0.112571 (Simulation time: 0 hr 51 min 29 sec) 
Heartbeat CPU 0 instructions: 23000003 cycles: 119757106 heartbeat IPC: 0.124631 cumulative IPC: 0.113415 (Simulation time: 0 hr 54 min 1 sec) 
Heartbeat CPU 0 instructions: 24000000 cycles: 127754397 heartbeat IPC: 0.125042 cumulative IPC: 0.114173 (Simulation time: 0 hr 56 min 29 sec) 
Heartbeat CPU 0 instructions: 25000002 cycles: 136205038 heartbeat IPC: 0.118334 cumulative IPC: 0.114442 (Simulation time: 0 hr 59 min 1 sec) 
Heartbeat CPU 0 instructions: 26000000 cycles: 144642973 heartbeat IPC: 0.118512 cumulative IPC: 0.114688 (Simulation time: 1 hr 1 min 42 sec) 
Heartbeat CPU 0 instructions: 27000003 cycles: 153065174 heartbeat IPC: 0.118734 cumulative IPC: 0.114918 (Simulation time: 1 hr 4 min 15 sec) 
Heartbeat CPU 0 instructions: 28000000 cycles: 161642063 heartbeat IPC: 0.116592 cumulative IPC: 0.11501 (Simulation time: 1 hr 6 min 54 sec) 
Heartbeat CPU 0 instructions: 29000000 cycles: 170447190 heartbeat IPC: 0.11357 cumulative IPC: 0.114933 (Simulation time: 1 hr 9 min 38 sec) 
Heartbeat CPU 0 instructions: 30000000 cycles: 178858005 heartbeat IPC: 0.118895 cumulative IPC: 0.115125 (Simulation time: 1 hr 12 min 19 sec) 
Heartbeat CPU 0 instructions: 31000000 cycles: 187253531 heartbeat IPC: 0.119111 cumulative IPC: 0.115309 (Simulation time: 1 hr 15 min 15 sec) 
Heartbeat CPU 0 instructions: 32000000 cycles: 195463701 heartbeat IPC: 0.1218 cumulative IPC: 0.115589 (Simulation time: 1 hr 18 min 3 sec) 
Heartbeat CPU 0 instructions: 33000000 cycles: 203811493 heartbeat IPC: 0.119792 cumulative IPC: 0.115765 (Simulation time: 1 hr 21 min 2 sec) 
Heartbeat CPU 0 instructions: 34000000 cycles: 212351145 heartbeat IPC: 0.117101 cumulative IPC: 0.11582 (Simulation time: 1 hr 24 min 11 sec) 
Heartbeat CPU 0 instructions: 35000000 cycles: 223161071 heartbeat IPC: 0.0925076 cumulative IPC: 0.114665 (Simulation time: 1 hr 27 min 54 sec) 
Heartbeat CPU 0 instructions: 36000000 cycles: 236397001 heartbeat IPC: 0.0755519 cumulative IPC: 0.112426 (Simulation time: 1 hr 31 min 56 sec) 
Heartbeat CPU 0 instructions: 37000002 cycles: 245092981 heartbeat IPC: 0.114996 cumulative IPC: 0.112519 (Simulation time: 1 hr 35 min 20 sec) 
Heartbeat CPU 0 instructions: 38000000 cycles: 253645917 heartbeat IPC: 0.116919 cumulative IPC: 0.112671 (Simulation time: 1 hr 38 min 30 sec) 
Heartbeat CPU 0 instructions: 39000000 cycles: 261988841 heartbeat IPC: 0.119862 cumulative IPC: 0.112904 (Simulation time: 1 hr 41 min 50 sec) 
Heartbeat CPU 0 instructions: 40000000 cycles: 270236426 heartbeat IPC: 0.121248 cumulative IPC: 0.113164 (Simulation time: 1 hr 45 min 6 sec) 
Heartbeat CPU 0 instructions: 41000000 cycles: 278771600 heartbeat IPC: 0.117162 cumulative IPC: 0.113288 (Simulation time: 1 hr 48 min 26 sec) 
Heartbeat CPU 0 instructions: 42000000 cycles: 287295412 heartbeat IPC: 0.117318 cumulative IPC: 0.11341 (Simulation time: 1 hr 51 min 43 sec) 
Heartbeat CPU 0 instructions: 43000000 cycles: 295669510 heartbeat IPC: 0.119416 cumulative IPC: 0.113583 (Simulation time: 1 hr 55 min 4 sec) 
Heartbeat CPU 0 instructions: 44000000 cycles: 304346088 heartbeat IPC: 0.115253 cumulative IPC: 0.113632 (Simulation time: 1 hr 58 min 20 sec) 
Heartbeat CPU 0 instructions: 45000001 cycles: 312878216 heartbeat IPC: 0.117204 cumulative IPC: 0.113731 (Simulation time: 2 hr 1 min 34 sec) 
Heartbeat CPU 0 instructions: 46000000 cycles: 321456448 heartbeat IPC: 0.116574 cumulative IPC: 0.113808 (Simulation time: 2 hr 4 min 48 sec) 
Heartbeat CPU 0 instructions: 47000002 cycles: 329702127 heartbeat IPC: 0.121276 cumulative IPC: 0.113998 (Simulation time: 2 hr 7 min 59 sec) 
Heartbeat CPU 0 instructions: 48000000 cycles: 337920571 heartbeat IPC: 0.121677 cumulative IPC: 0.114187 (Simulation time: 2 hr 11 min 12 sec) 
Heartbeat CPU 0 instructions: 49000000 cycles: 346466879 heartbeat IPC: 0.11701 cumulative IPC: 0.114258 (Simulation time: 2 hr 14 min 19 sec) 
Heartbeat CPU 0 instructions: 50000002 cycles: 355020991 heartbeat IPC: 0.116903 cumulative IPC: 0.114323 (Simulation time: 2 hr 17 min 26 sec) 
Heartbeat CPU 0 instructions: 51000002 cycles: 363399976 heartbeat IPC: 0.119346 cumulative IPC: 0.11444 (Simulation time: 2 hr 20 min 21 sec) 
Heartbeat CPU 0 instructions: 52000000 cycles: 371892790 heartbeat IPC: 0.117746 cumulative IPC: 0.114517 (Simulation time: 2 hr 23 min 20 sec) 
Heartbeat CPU 0 instructions: 53000000 cycles: 380069289 heartbeat IPC: 0.122302 cumulative IPC: 0.114686 (Simulation time: 2 hr 26 min 6 sec) 
Heartbeat CPU 0 instructions: 54000000 cycles: 388064268 heartbeat IPC: 0.125078 cumulative IPC: 0.114903 (Simulation time: 2 hr 28 min 13 sec) 
Heartbeat CPU 0 instructions: 55000001 cycles: 396268875 heartbeat IPC: 0.121883 cumulative IPC: 0.11505 (Simulation time: 2 hr 29 min 55 sec) 
Heartbeat CPU 0 instructions: 56000000 cycles: 404432559 heartbeat IPC: 0.122494 cumulative IPC: 0.115202 (Simulation time: 2 hr 31 min 28 sec) 
Heartbeat CPU 0 instructions: 57000000 cycles: 412965481 heartbeat IPC: 0.117193 cumulative IPC: 0.115244 (Simulation time: 2 hr 33 min 7 sec) 
Heartbeat CPU 0 instructions: 58000000 cycles: 421296543 heartbeat IPC: 0.120033 cumulative IPC: 0.11534 (Simulation time: 2 hr 34 min 32 sec) 
Heartbeat CPU 0 instructions: 59000001 cycles: 429564660 heartbeat IPC: 0.120947 cumulative IPC: 0.115449 (Simulation time: 2 hr 35 min 53 sec) 
Heartbeat CPU 0 instructions: 60000000 cycles: 437620957 heartbeat IPC: 0.124126 cumulative IPC: 0.11561 (Simulation time: 2 hr 37 min 16 sec) 
Heartbeat CPU 0 instructions: 61000001 cycles: 445690879 heartbeat IPC: 0.123917 cumulative IPC: 0.115763 (Simulation time: 2 hr 38 min 31 sec) 
Heartbeat CPU 0 instructions: 62000000 cycles: 452743975 heartbeat IPC: 0.141782 cumulative IPC: 0.116173 (Simulation time: 2 hr 39 min 45 sec) 
Heartbeat CPU 0 instructions: 63000001 cycles: 460825627 heartbeat IPC: 0.123737 cumulative IPC: 0.116307 (Simulation time: 2 hr 40 min 59 sec) 
Heartbeat CPU 0 instructions: 64000000 cycles: 469176805 heartbeat IPC: 0.119743 cumulative IPC: 0.116369 (Simulation time: 2 hr 42 min 3 sec) 
Heartbeat CPU 0 instructions: 65000000 cycles: 476943663 heartbeat IPC: 0.128752 cumulative IPC: 0.116572 (Simulation time: 2 hr 43 min 2 sec) 
Heartbeat CPU 0 instructions: 66000000 cycles: 485133782 heartbeat IPC: 0.122098 cumulative IPC: 0.116667 (Simulation time: 2 hr 44 min 0 sec) 
Heartbeat CPU 0 instructions: 67000000 cycles: 493574992 heartbeat IPC: 0.118466 cumulative IPC: 0.116698 (Simulation time: 2 hr 45 min 3 sec) 
Heartbeat CPU 0 instructions: 68000000 cycles: 502067783 heartbeat IPC: 0.117747 cumulative IPC: 0.116716 (Simulation time: 2 hr 45 min 55 sec) 
Heartbeat CPU 0 instructions: 69000000 cycles: 510310171 heartbeat IPC: 0.121324 cumulative IPC: 0.116791 (Simulation time: 2 hr 46 min 47 sec) 
Heartbeat CPU 0 instructions: 70000000 cycles: 518497779 heartbeat IPC: 0.122136 cumulative IPC: 0.116876 (Simulation time: 2 hr 47 min 36 sec) 
Heartbeat CPU 0 instructions: 71000000 cycles: 526632886 heartbeat IPC: 0.122924 cumulative IPC: 0.116971 (Simulation time: 2 hr 48 min 23 sec) 
Heartbeat CPU 0 instructions: 72000000 cycles: 534962276 heartbeat IPC: 0.120057 cumulative IPC: 0.117019 (Simulation time: 2 hr 49 min 8 sec) 
Heartbeat CPU 0 instructions: 73000000 cycles: 543124253 heartbeat IPC: 0.122519 cumulative IPC: 0.117102 (Simulation time: 2 hr 49 min 49 sec) 
Heartbeat CPU 0 instructions: 74000001 cycles: 551568898 heartbeat IPC: 0.118418 cumulative IPC: 0.117123 (Simulation time: 2 hr 50 min 25 sec) 
Heartbeat CPU 0 instructions: 75000002 cycles: 559498330 heartbeat IPC: 0.126113 cumulative IPC: 0.117251 (Simulation time: 2 hr 50 min 57 sec) 
Heartbeat CPU 0 instructions: 76000000 cycles: 567677248 heartbeat IPC: 0.122265 cumulative IPC: 0.117324 (Simulation time: 2 hr 51 min 26 sec) 
Heartbeat CPU 0 instructions: 77000003 cycles: 582040195 heartbeat IPC: 0.0696238 cumulative IPC: 0.116137 (Simulation time: 2 hr 51 min 59 sec) 
Heartbeat CPU 0 instructions: 78000000 cycles: 591717158 heartbeat IPC: 0.103338 cumulative IPC: 0.115926 (Simulation time: 2 hr 52 min 22 sec) 
Heartbeat CPU 0 instructions: 79000000 cycles: 599861377 heartbeat IPC: 0.122786 cumulative IPC: 0.11602 (Simulation time: 2 hr 52 min 40 sec) 
Heartbeat CPU 0 instructions: 80000000 cycles: 607730677 heartbeat IPC: 0.127076 cumulative IPC: 0.116164 (Simulation time: 2 hr 52 min 55 sec) 
Heartbeat CPU 0 instructions: 81000001 cycles: 615728719 heartbeat IPC: 0.125031 cumulative IPC: 0.11628 (Simulation time: 2 hr 53 min 9 sec) 
Heartbeat CPU 0 instructions: 82000001 cycles: 623222357 heartbeat IPC: 0.133447 cumulative IPC: 0.116488 (Simulation time: 2 hr 53 min 22 sec) 
Heartbeat CPU 0 instructions: 83000002 cycles: 630087577 heartbeat IPC: 0.145662 cumulative IPC: 0.116809 (Simulation time: 2 hr 53 min 34 sec) 
Heartbeat CPU 0 instructions: 84000000 cycles: 636800248 heartbeat IPC: 0.148972 cumulative IPC: 0.11715 (Simulation time: 2 hr 53 min 46 sec) 
Heartbeat CPU 0 instructions: 85000000 cycles: 643880791 heartbeat IPC: 0.141232 cumulative IPC: 0.117417 (Simulation time: 2 hr 53 min 58 sec) 
Heartbeat CPU 0 instructions: 86000001 cycles: 650730435 heartbeat IPC: 0.145993 cumulative IPC: 0.117721 (Simulation time: 2 hr 54 min 10 sec) 
Heartbeat CPU 0 instructions: 87000001 cycles: 663983535 heartbeat IPC: 0.075454 cumulative IPC: 0.11687 (Simulation time: 2 hr 54 min 24 sec) 
Heartbeat CPU 0 instructions: 88000000 cycles: 673442185 heartbeat IPC: 0.105723 cumulative IPC: 0.116713 (Simulation time: 2 hr 54 min 34 sec) 
Heartbeat CPU 0 instructions: 89000001 cycles: 681074177 heartbeat IPC: 0.131028 cumulative IPC: 0.116874 (Simulation time: 2 hr 54 min 45 sec) 
Heartbeat CPU 0 instructions: 90000001 cycles: 687201978 heartbeat IPC: 0.163191 cumulative IPC: 0.11729 (Simulation time: 2 hr 54 min 54 sec) 
Heartbeat CPU 0 instructions: 91000000 cycles: 696284683 heartbeat IPC: 0.110099 cumulative IPC: 0.117196 (Simulation time: 2 hr 55 min 2 sec) 
Heartbeat CPU 0 instructions: 92000000 cycles: 703608528 heartbeat IPC: 0.13654 cumulative IPC: 0.117399 (Simulation time: 2 hr 55 min 8 sec) 
Heartbeat CPU 0 instructions: 93000000 cycles: 712209752 heartbeat IPC: 0.116263 cumulative IPC: 0.117385 (Simulation time: 2 hr 55 min 14 sec) 
Heartbeat CPU 0 instructions: 94000000 cycles: 720898549 heartbeat IPC: 0.115091 cumulative IPC: 0.117357 (Simulation time: 2 hr 55 min 21 sec) 
Heartbeat CPU 0 instructions: 95000000 cycles: 729573782 heartbeat IPC: 0.115271 cumulative IPC: 0.117332 (Simulation time: 2 hr 55 min 27 sec) 
Heartbeat CPU 0 instructions: 96000000 cycles: 738261514 heartbeat IPC: 0.115105 cumulative IPC: 0.117306 (Simulation time: 2 hr 55 min 33 sec) 
Heartbeat CPU 0 instructions: 97000000 cycles: 746774949 heartbeat IPC: 0.117461 cumulative IPC: 0.117307 (Simulation time: 2 hr 55 min 40 sec) 
Heartbeat CPU 0 instructions: 98000000 cycles: 755244656 heartbeat IPC: 0.118068 cumulative IPC: 0.117316 (Simulation time: 2 hr 55 min 47 sec) 
Heartbeat CPU 0 instructions: 99000000 cycles: 763569279 heartbeat IPC: 0.120126 cumulative IPC: 0.117347 (Simulation time: 2 hr 55 min 54 sec) 
Heartbeat CPU 0 instructions: 100000000 cycles: 771829899 heartbeat IPC: 0.121056 cumulative IPC: 0.117387 (Simulation time: 2 hr 56 min 0 sec) 
Heartbeat CPU 0 instructions: 101000002 cycles: 780224277 heartbeat IPC: 0.119128 cumulative IPC: 0.117406 (Simulation time: 2 hr 56 min 6 sec) 
Heartbeat CPU 0 instructions: 102000000 cycles: 788707864 heartbeat IPC: 0.117874 cumulative IPC: 0.117411 (Simulation time: 2 hr 56 min 12 sec) 
Heartbeat CPU 0 instructions: 103000000 cycles: 797316205 heartbeat IPC: 0.116166 cumulative IPC: 0.117397 (Simulation time: 2 hr 56 min 18 sec) 
Heartbeat CPU 0 instructions: 104000000 cycles: 806110809 heartbeat IPC: 0.113706 cumulative IPC: 0.117357 (Simulation time: 2 hr 56 min 24 sec) 
Heartbeat CPU 0 instructions: 105000000 cycles: 814367211 heartbeat IPC: 0.121118 cumulative IPC: 0.117395 (Simulation time: 2 hr 56 min 30 sec) 
Heartbeat CPU 0 instructions: 106000002 cycles: 822944086 heartbeat IPC: 0.116593 cumulative IPC: 0.117387 (Simulation time: 2 hr 56 min 36 sec) 
Heartbeat CPU 0 instructions: 107000003 cycles: 831562867 heartbeat IPC: 0.116026 cumulative IPC: 0.117372 (Simulation time: 2 hr 56 min 43 sec) 
Heartbeat CPU 0 instructions: 108000000 cycles: 840253137 heartbeat IPC: 0.115071 cumulative IPC: 0.117349 (Simulation time: 2 hr 56 min 50 sec) 
Heartbeat CPU 0 instructions: 109000000 cycles: 848930590 heartbeat IPC: 0.115241 cumulative IPC: 0.117327 (Simulation time: 2 hr 56 min 57 sec) 
Heartbeat CPU 0 instructions: 110000000 cycles: 857380843 heartbeat IPC: 0.11834 cumulative IPC: 0.117337 (Simulation time: 2 hr 57 min 4 sec) 
Finished CPU 0 instructions: 100000000 cycles: 852246891 cummulative IPC: 0.117337 (Simulation time: 2 hr 57 min 4 sec) 

ChampSim completed all CPUs

Region of Interest Statistics

CPU 0 cummulative IPC: 0.117337 instructions: 100000000 cycles: 852246891
LLC TOTAL     ACCESS:   26966640  HIT:   12919349  MISS:   14047291
LLC LOAD      ACCESS:   11721856  HIT:    9417416  MISS:    2304440
LLC RFO       ACCESS:      27346  HIT:      13765  MISS:      13581
LLC PREFETCH  ACCESS:   14883723  HIT:    3247133  MISS:   11636590
LLC WRITEBACK ACCESS:     333715  HIT:     241035  MISS:      92680
Insertion Distribution: 
	LOAD 128010 0 0 0 0 0 0 0 0 0 0 0 0 0 0 0 0 0 0 0 0 0 0 0 0 0 0 0 0 0 133260 2303373 
	RFO 9617 0 0 0 0 0 0 0 0 0 0 0 0 0 0 0 0 0 0 0 0 0 0 0 0 0 0 0 0 0 5158 3196 
	PREF 0 114829 0 0 0 0 0 0 0 0 0 0 0 0 0 0 0 0 0 0 0 0 0 0 0 0 0 0 0 0 2272519 10376899 
	WRITEBACK 0 0 0 0 0 0 0 0 0 0 0 0 0 0 0 0 0 0 0 0 0 0 0 0 0 0 0 0 0 0 0 129233 
Total Prefetch Downgrades: 1028046
