
*** ChampSim Multicore Out-of-Order Simulator ***

Warmup Instructions: 10000000
Simulation Instructions: 100000000
Configuration: 2
Number of CPUs: 1
LLC sets: 2048
LLC ways: 16
Off-chip DRAM Channels: 1 Width: 64-bit Data Rate: 1600 MT/s

CPU 0 runs /datasets/cs240c-wi22-a00-public/data/Assignment2-gz/omnetpp_340B.trace.gz
CPU 0 L1D next line prefetcher
CPU 0 L2C IP-based stride prefetcher
Initialize SRRIP state
Heartbeat CPU 0 instructions: 1000001 cycles: 576944 heartbeat IPC: 1.73327 cumulative IPC: 1.73327 (Simulation time: 0 hr 1 min 43 sec) 
Heartbeat CPU 0 instructions: 2000000 cycles: 1160917 heartbeat IPC: 1.71241 cumulative IPC: 1.72278 (Simulation time: 0 hr 3 min 25 sec) 
Heartbeat CPU 0 instructions: 3000001 cycles: 1758241 heartbeat IPC: 1.67413 cumulative IPC: 1.70625 (Simulation time: 0 hr 5 min 10 sec) 
Heartbeat CPU 0 instructions: 4000000 cycles: 2379233 heartbeat IPC: 1.61033 cumulative IPC: 1.68121 (Simulation time: 0 hr 6 min 57 sec) 
Heartbeat CPU 0 instructions: 5000002 cycles: 2954596 heartbeat IPC: 1.73804 cumulative IPC: 1.69228 (Simulation time: 0 hr 8 min 37 sec) 
Heartbeat CPU 0 instructions: 6000003 cycles: 3556092 heartbeat IPC: 1.66252 cumulative IPC: 1.68725 (Simulation time: 0 hr 10 min 23 sec) 
Heartbeat CPU 0 instructions: 7000003 cycles: 4205550 heartbeat IPC: 1.53975 cumulative IPC: 1.66447 (Simulation time: 0 hr 12 min 14 sec) 
Heartbeat CPU 0 instructions: 8000000 cycles: 4800172 heartbeat IPC: 1.68174 cumulative IPC: 1.66661 (Simulation time: 0 hr 13 min 57 sec) 
Heartbeat CPU 0 instructions: 9000002 cycles: 5433606 heartbeat IPC: 1.5787 cumulative IPC: 1.65636 (Simulation time: 0 hr 15 min 45 sec) 
Heartbeat CPU 0 instructions: 10000002 cycles: 6028158 heartbeat IPC: 1.68194 cumulative IPC: 1.65888 (Simulation time: 0 hr 17 min 30 sec) 

Warmup complete CPU 0 instructions: 10000002 cycles: 6028158 (Simulation time: 0 hr 17 min 30 sec) 

Heartbeat CPU 0 instructions: 11000000 cycles: 9696418 heartbeat IPC: 0.272608 cumulative IPC: 0.272608 (Simulation time: 0 hr 19 min 39 sec) 
Heartbeat CPU 0 instructions: 12000000 cycles: 13171564 heartbeat IPC: 0.287758 cumulative IPC: 0.279978 (Simulation time: 0 hr 21 min 38 sec) 
Heartbeat CPU 0 instructions: 13000000 cycles: 17051638 heartbeat IPC: 0.257727 cumulative IPC: 0.272146 (Simulation time: 0 hr 23 min 47 sec) 
Heartbeat CPU 0 instructions: 14000001 cycles: 20873528 heartbeat IPC: 0.261651 cumulative IPC: 0.269444 (Simulation time: 0 hr 25 min 54 sec) 
Heartbeat CPU 0 instructions: 15000003 cycles: 24750288 heartbeat IPC: 0.257948 cumulative IPC: 0.267064 (Simulation time: 0 hr 28 min 9 sec) 
Heartbeat CPU 0 instructions: 16000000 cycles: 28869045 heartbeat IPC: 0.242791 cumulative IPC: 0.262687 (Simulation time: 0 hr 30 min 18 sec) 
Heartbeat CPU 0 instructions: 17000000 cycles: 32607941 heartbeat IPC: 0.267459 cumulative IPC: 0.263358 (Simulation time: 0 hr 32 min 32 sec) 
Heartbeat CPU 0 instructions: 18000000 cycles: 36499810 heartbeat IPC: 0.256946 cumulative IPC: 0.262539 (Simulation time: 0 hr 34 min 40 sec) 
Heartbeat CPU 0 instructions: 19000000 cycles: 40844576 heartbeat IPC: 0.230162 cumulative IPC: 0.258499 (Simulation time: 0 hr 36 min 55 sec) 
Heartbeat CPU 0 instructions: 20000000 cycles: 44924689 heartbeat IPC: 0.245091 cumulative IPC: 0.257092 (Simulation time: 0 hr 39 min 0 sec) 
Heartbeat CPU 0 instructions: 21000000 cycles: 48374475 heartbeat IPC: 0.289873 cumulative IPC: 0.259763 (Simulation time: 0 hr 41 min 6 sec) 
Heartbeat CPU 0 instructions: 22000001 cycles: 52265645 heartbeat IPC: 0.256992 cumulative IPC: 0.25953 (Simulation time: 0 hr 43 min 17 sec) 
Heartbeat CPU 0 instructions: 23000001 cycles: 56097054 heartbeat IPC: 0.261001 cumulative IPC: 0.259642 (Simulation time: 0 hr 45 min 28 sec) 
Heartbeat CPU 0 instructions: 24000000 cycles: 59900966 heartbeat IPC: 0.262887 cumulative IPC: 0.259871 (Simulation time: 0 hr 47 min 34 sec) 
Heartbeat CPU 0 instructions: 25000000 cycles: 63981957 heartbeat IPC: 0.245039 cumulative IPC: 0.258827 (Simulation time: 0 hr 49 min 44 sec) 
Heartbeat CPU 0 instructions: 26000001 cycles: 68071621 heartbeat IPC: 0.244519 cumulative IPC: 0.257884 (Simulation time: 0 hr 51 min 56 sec) 
Heartbeat CPU 0 instructions: 27000000 cycles: 72097134 heartbeat IPC: 0.248415 cumulative IPC: 0.257307 (Simulation time: 0 hr 54 min 10 sec) 
Heartbeat CPU 0 instructions: 28000000 cycles: 76158243 heartbeat IPC: 0.246238 cumulative IPC: 0.256666 (Simulation time: 0 hr 56 min 32 sec) 
Heartbeat CPU 0 instructions: 29000003 cycles: 80231702 heartbeat IPC: 0.245492 cumulative IPC: 0.256052 (Simulation time: 0 hr 58 min 48 sec) 
Heartbeat CPU 0 instructions: 30000000 cycles: 83890248 heartbeat IPC: 0.273332 cumulative IPC: 0.256864 (Simulation time: 1 hr 0 min 48 sec) 
Heartbeat CPU 0 instructions: 31000000 cycles: 87717100 heartbeat IPC: 0.261311 cumulative IPC: 0.257073 (Simulation time: 1 hr 3 min 7 sec) 
Heartbeat CPU 0 instructions: 32000000 cycles: 91509961 heartbeat IPC: 0.263653 cumulative IPC: 0.257365 (Simulation time: 1 hr 5 min 19 sec) 
Heartbeat CPU 0 instructions: 33000003 cycles: 95221780 heartbeat IPC: 0.26941 cumulative IPC: 0.257866 (Simulation time: 1 hr 7 min 25 sec) 
Heartbeat CPU 0 instructions: 34000001 cycles: 99298745 heartbeat IPC: 0.24528 cumulative IPC: 0.257316 (Simulation time: 1 hr 9 min 41 sec) 
Heartbeat CPU 0 instructions: 35000002 cycles: 102819464 heartbeat IPC: 0.284033 cumulative IPC: 0.258288 (Simulation time: 1 hr 11 min 52 sec) 
Heartbeat CPU 0 instructions: 36000000 cycles: 107105195 heartbeat IPC: 0.233332 cumulative IPC: 0.25723 (Simulation time: 1 hr 14 min 14 sec) 
Heartbeat CPU 0 instructions: 37000000 cycles: 111422551 heartbeat IPC: 0.231623 cumulative IPC: 0.256181 (Simulation time: 1 hr 16 min 29 sec) 
Heartbeat CPU 0 instructions: 38000000 cycles: 115194242 heartbeat IPC: 0.265133 cumulative IPC: 0.25649 (Simulation time: 1 hr 18 min 38 sec) 
Heartbeat CPU 0 instructions: 39000001 cycles: 119322241 heartbeat IPC: 0.242248 cumulative IPC: 0.255971 (Simulation time: 1 hr 20 min 55 sec) 
Heartbeat CPU 0 instructions: 40000000 cycles: 122798909 heartbeat IPC: 0.287631 cumulative IPC: 0.256914 (Simulation time: 1 hr 23 min 1 sec) 
Heartbeat CPU 0 instructions: 41000000 cycles: 126481211 heartbeat IPC: 0.271569 cumulative IPC: 0.257362 (Simulation time: 1 hr 25 min 15 sec) 
Heartbeat CPU 0 instructions: 42000001 cycles: 130727827 heartbeat IPC: 0.235482 cumulative IPC: 0.256617 (Simulation time: 1 hr 27 min 29 sec) 
Heartbeat CPU 0 instructions: 43000001 cycles: 134868151 heartbeat IPC: 0.241527 cumulative IPC: 0.256132 (Simulation time: 1 hr 29 min 34 sec) 
Heartbeat CPU 0 instructions: 44000000 cycles: 138575687 heartbeat IPC: 0.269721 cumulative IPC: 0.256512 (Simulation time: 1 hr 31 min 40 sec) 
Heartbeat CPU 0 instructions: 45000003 cycles: 142477127 heartbeat IPC: 0.256316 cumulative IPC: 0.256506 (Simulation time: 1 hr 33 min 43 sec) 
Heartbeat CPU 0 instructions: 46000003 cycles: 146659470 heartbeat IPC: 0.2391 cumulative IPC: 0.255989 (Simulation time: 1 hr 35 min 54 sec) 
Heartbeat CPU 0 instructions: 47000000 cycles: 149991622 heartbeat IPC: 0.300105 cumulative IPC: 0.25701 (Simulation time: 1 hr 37 min 49 sec) 
Heartbeat CPU 0 instructions: 48000000 cycles: 154088284 heartbeat IPC: 0.244101 cumulative IPC: 0.256652 (Simulation time: 1 hr 40 min 4 sec) 
Heartbeat CPU 0 instructions: 49000000 cycles: 157208557 heartbeat IPC: 0.320485 cumulative IPC: 0.25797 (Simulation time: 1 hr 42 min 5 sec) 
Heartbeat CPU 0 instructions: 50000001 cycles: 161318634 heartbeat IPC: 0.243305 cumulative IPC: 0.257582 (Simulation time: 1 hr 44 min 18 sec) 
Heartbeat CPU 0 instructions: 51000003 cycles: 165141189 heartbeat IPC: 0.261606 cumulative IPC: 0.257678 (Simulation time: 1 hr 46 min 35 sec) 
Heartbeat CPU 0 instructions: 52000000 cycles: 169197693 heartbeat IPC: 0.246517 cumulative IPC: 0.257401 (Simulation time: 1 hr 49 min 1 sec) 
Heartbeat CPU 0 instructions: 53000000 cycles: 173657692 heartbeat IPC: 0.224215 cumulative IPC: 0.256518 (Simulation time: 1 hr 51 min 14 sec) 
Heartbeat CPU 0 instructions: 54000002 cycles: 177793489 heartbeat IPC: 0.241792 cumulative IPC: 0.256163 (Simulation time: 1 hr 53 min 19 sec) 
Heartbeat CPU 0 instructions: 55000001 cycles: 181737002 heartbeat IPC: 0.253581 cumulative IPC: 0.256105 (Simulation time: 1 hr 55 min 41 sec) 
Heartbeat CPU 0 instructions: 56000000 cycles: 186008727 heartbeat IPC: 0.234097 cumulative IPC: 0.255583 (Simulation time: 1 hr 57 min 57 sec) 
Heartbeat CPU 0 instructions: 57000001 cycles: 190108033 heartbeat IPC: 0.243944 cumulative IPC: 0.255324 (Simulation time: 2 hr 0 min 6 sec) 
Heartbeat CPU 0 instructions: 58000000 cycles: 193459099 heartbeat IPC: 0.298412 cumulative IPC: 0.256094 (Simulation time: 2 hr 2 min 17 sec) 
Heartbeat CPU 0 instructions: 59000003 cycles: 197389432 heartbeat IPC: 0.254432 cumulative IPC: 0.25606 (Simulation time: 2 hr 4 min 40 sec) 
Heartbeat CPU 0 instructions: 60000000 cycles: 201818628 heartbeat IPC: 0.225774 cumulative IPC: 0.255375 (Simulation time: 2 hr 7 min 1 sec) 
Heartbeat CPU 0 instructions: 61000001 cycles: 206066712 heartbeat IPC: 0.2354 cumulative IPC: 0.254951 (Simulation time: 2 hr 9 min 12 sec) 
Heartbeat CPU 0 instructions: 62000000 cycles: 210354471 heartbeat IPC: 0.233222 cumulative IPC: 0.254495 (Simulation time: 2 hr 11 min 20 sec) 
Heartbeat CPU 0 instructions: 63000001 cycles: 214048420 heartbeat IPC: 0.270713 cumulative IPC: 0.254783 (Simulation time: 2 hr 13 min 22 sec) 
Heartbeat CPU 0 instructions: 64000000 cycles: 217890815 heartbeat IPC: 0.260254 cumulative IPC: 0.254882 (Simulation time: 2 hr 15 min 25 sec) 
Heartbeat CPU 0 instructions: 65000001 cycles: 221454008 heartbeat IPC: 0.280647 cumulative IPC: 0.255308 (Simulation time: 2 hr 17 min 21 sec) 
Heartbeat CPU 0 instructions: 66000002 cycles: 225601170 heartbeat IPC: 0.241129 cumulative IPC: 0.25504 (Simulation time: 2 hr 19 min 22 sec) 
Heartbeat CPU 0 instructions: 67000002 cycles: 229547604 heartbeat IPC: 0.253393 cumulative IPC: 0.255011 (Simulation time: 2 hr 21 min 22 sec) 
Heartbeat CPU 0 instructions: 68000000 cycles: 233452113 heartbeat IPC: 0.256114 cumulative IPC: 0.25503 (Simulation time: 2 hr 23 min 23 sec) 
Heartbeat CPU 0 instructions: 69000000 cycles: 237552987 heartbeat IPC: 0.24385 cumulative IPC: 0.254832 (Simulation time: 2 hr 25 min 20 sec) 
Heartbeat CPU 0 instructions: 70000001 cycles: 241280789 heartbeat IPC: 0.268255 cumulative IPC: 0.255045 (Simulation time: 2 hr 26 min 56 sec) 
Heartbeat CPU 0 instructions: 71000003 cycles: 245228485 heartbeat IPC: 0.253313 cumulative IPC: 0.255016 (Simulation time: 2 hr 28 min 28 sec) 
Heartbeat CPU 0 instructions: 72000000 cycles: 249689377 heartbeat IPC: 0.22417 cumulative IPC: 0.254452 (Simulation time: 2 hr 29 min 58 sec) 
Heartbeat CPU 0 instructions: 73000002 cycles: 253720771 heartbeat IPC: 0.248054 cumulative IPC: 0.254348 (Simulation time: 2 hr 31 min 13 sec) 
Heartbeat CPU 0 instructions: 74000000 cycles: 257609060 heartbeat IPC: 0.257182 cumulative IPC: 0.254391 (Simulation time: 2 hr 32 min 32 sec) 
Heartbeat CPU 0 instructions: 75000003 cycles: 261729758 heartbeat IPC: 0.242678 cumulative IPC: 0.254203 (Simulation time: 2 hr 33 min 53 sec) 
Heartbeat CPU 0 instructions: 76000000 cycles: 265636486 heartbeat IPC: 0.255968 cumulative IPC: 0.254229 (Simulation time: 2 hr 35 min 14 sec) 
Heartbeat CPU 0 instructions: 77000002 cycles: 270106392 heartbeat IPC: 0.223719 cumulative IPC: 0.253713 (Simulation time: 2 hr 36 min 25 sec) 
Heartbeat CPU 0 instructions: 78000003 cycles: 273949692 heartbeat IPC: 0.260193 cumulative IPC: 0.253806 (Simulation time: 2 hr 37 min 30 sec) 
Heartbeat CPU 0 instructions: 79000002 cycles: 277807373 heartbeat IPC: 0.259223 cumulative IPC: 0.253883 (Simulation time: 2 hr 38 min 39 sec) 
Heartbeat CPU 0 instructions: 80000000 cycles: 281666698 heartbeat IPC: 0.259112 cumulative IPC: 0.253956 (Simulation time: 2 hr 39 min 44 sec) 
Heartbeat CPU 0 instructions: 81000002 cycles: 285854986 heartbeat IPC: 0.238762 cumulative IPC: 0.253728 (Simulation time: 2 hr 40 min 45 sec) 
Heartbeat CPU 0 instructions: 82000000 cycles: 290372471 heartbeat IPC: 0.221362 cumulative IPC: 0.253214 (Simulation time: 2 hr 41 min 43 sec) 
Heartbeat CPU 0 instructions: 83000002 cycles: 294145567 heartbeat IPC: 0.265035 cumulative IPC: 0.253369 (Simulation time: 2 hr 42 min 33 sec) 
Heartbeat CPU 0 instructions: 84000000 cycles: 298084610 heartbeat IPC: 0.253868 cumulative IPC: 0.253376 (Simulation time: 2 hr 43 min 24 sec) 
Heartbeat CPU 0 instructions: 85000000 cycles: 302017820 heartbeat IPC: 0.254245 cumulative IPC: 0.253387 (Simulation time: 2 hr 44 min 13 sec) 
Heartbeat CPU 0 instructions: 86000000 cycles: 306097490 heartbeat IPC: 0.245118 cumulative IPC: 0.253275 (Simulation time: 2 hr 44 min 58 sec) 
Heartbeat CPU 0 instructions: 87000001 cycles: 309900914 heartbeat IPC: 0.262921 cumulative IPC: 0.253396 (Simulation time: 2 hr 45 min 42 sec) 
Heartbeat CPU 0 instructions: 88000000 cycles: 313757006 heartbeat IPC: 0.25933 cumulative IPC: 0.25347 (Simulation time: 2 hr 46 min 25 sec) 
Heartbeat CPU 0 instructions: 89000003 cycles: 317326362 heartbeat IPC: 0.280163 cumulative IPC: 0.253776 (Simulation time: 2 hr 47 min 3 sec) 
Heartbeat CPU 0 instructions: 90000000 cycles: 321252967 heartbeat IPC: 0.254672 cumulative IPC: 0.253787 (Simulation time: 2 hr 47 min 40 sec) 
Heartbeat CPU 0 instructions: 91000001 cycles: 324863765 heartbeat IPC: 0.276947 cumulative IPC: 0.254049 (Simulation time: 2 hr 48 min 17 sec) 
Heartbeat CPU 0 instructions: 92000000 cycles: 328915422 heartbeat IPC: 0.246812 cumulative IPC: 0.253959 (Simulation time: 2 hr 48 min 54 sec) 
Heartbeat CPU 0 instructions: 93000001 cycles: 333306410 heartbeat IPC: 0.227739 cumulative IPC: 0.253607 (Simulation time: 2 hr 49 min 32 sec) 
Heartbeat CPU 0 instructions: 94000001 cycles: 337133932 heartbeat IPC: 0.261266 cumulative IPC: 0.253695 (Simulation time: 2 hr 50 min 7 sec) 
Heartbeat CPU 0 instructions: 95000000 cycles: 341124863 heartbeat IPC: 0.250568 cumulative IPC: 0.253658 (Simulation time: 2 hr 50 min 37 sec) 
Heartbeat CPU 0 instructions: 96000000 cycles: 345513093 heartbeat IPC: 0.227882 cumulative IPC: 0.253325 (Simulation time: 2 hr 51 min 4 sec) 
Heartbeat CPU 0 instructions: 97000000 cycles: 349182698 heartbeat IPC: 0.272509 cumulative IPC: 0.25353 (Simulation time: 2 hr 51 min 28 sec) 
Heartbeat CPU 0 instructions: 98000000 cycles: 353430366 heartbeat IPC: 0.235423 cumulative IPC: 0.253309 (Simulation time: 2 hr 51 min 50 sec) 
Heartbeat CPU 0 instructions: 99000000 cycles: 357870153 heartbeat IPC: 0.225236 cumulative IPC: 0.252954 (Simulation time: 2 hr 52 min 8 sec) 
Heartbeat CPU 0 instructions: 100000000 cycles: 361959425 heartbeat IPC: 0.244542 cumulative IPC: 0.252858 (Simulation time: 2 hr 52 min 24 sec) 
Heartbeat CPU 0 instructions: 101000000 cycles: 365898409 heartbeat IPC: 0.253873 cumulative IPC: 0.252869 (Simulation time: 2 hr 52 min 37 sec) 
Heartbeat CPU 0 instructions: 102000003 cycles: 370127868 heartbeat IPC: 0.236438 cumulative IPC: 0.252678 (Simulation time: 2 hr 52 min 49 sec) 
Heartbeat CPU 0 instructions: 103000000 cycles: 374030869 heartbeat IPC: 0.256212 cumulative IPC: 0.252716 (Simulation time: 2 hr 52 min 59 sec) 
Heartbeat CPU 0 instructions: 104000000 cycles: 377857100 heartbeat IPC: 0.261354 cumulative IPC: 0.252804 (Simulation time: 2 hr 53 min 10 sec) 
Heartbeat CPU 0 instructions: 105000003 cycles: 381996579 heartbeat IPC: 0.241577 cumulative IPC: 0.252681 (Simulation time: 2 hr 53 min 20 sec) 
Heartbeat CPU 0 instructions: 106000001 cycles: 385638828 heartbeat IPC: 0.274555 cumulative IPC: 0.252891 (Simulation time: 2 hr 53 min 29 sec) 
Heartbeat CPU 0 instructions: 107000000 cycles: 389730939 heartbeat IPC: 0.244372 cumulative IPC: 0.2528 (Simulation time: 2 hr 53 min 39 sec) 
Heartbeat CPU 0 instructions: 108000000 cycles: 393605781 heartbeat IPC: 0.258075 cumulative IPC: 0.252853 (Simulation time: 2 hr 53 min 49 sec) 
Heartbeat CPU 0 instructions: 109000000 cycles: 397936294 heartbeat IPC: 0.23092 cumulative IPC: 0.25261 (Simulation time: 2 hr 53 min 58 sec) 
Heartbeat CPU 0 instructions: 110000000 cycles: 401586337 heartbeat IPC: 0.273969 cumulative IPC: 0.252807 (Simulation time: 2 hr 54 min 8 sec) 
Finished CPU 0 instructions: 100000000 cycles: 395558183 cummulative IPC: 0.252807 (Simulation time: 2 hr 54 min 8 sec) 

ChampSim completed all CPUs

Region of Interest Statistics

CPU 0 cummulative IPC: 0.252807 instructions: 100000000 cycles: 395558183
LLC TOTAL     ACCESS:    4309269  HIT:    1266896  MISS:    3042373
LLC LOAD      ACCESS:    1522992  HIT:     422845  MISS:    1100147
LLC RFO       ACCESS:     250499  HIT:      87865  MISS:     162634
LLC PREFETCH  ACCESS:    1529749  HIT:     175289  MISS:    1354460
LLC WRITEBACK ACCESS:    1006029  HIT:     580897  MISS:     425132
Insertion Distribution: 
	LOAD 155761 0 0 0 0 0 0 0 0 0 0 0 0 0 0 0 0 0 0 0 0 0 0 0 0 0 0 0 0 0 130198 913588 
	RFO 63807 0 0 0 0 0 0 0 0 0 0 0 0 0 0 0 0 0 0 0 0 0 0 0 0 0 0 0 0 0 58182 57127 
	PREF 0 10859 0 0 0 0 0 0 0 0 0 0 0 0 0 0 0 0 0 0 0 0 0 0 0 0 0 0 0 0 52351 1439300 
	WRITEBACK 0 0 0 0 0 0 0 0 0 0 0 0 0 0 0 0 0 0 0 0 0 0 0 0 0 0 0 0 0 0 0 456274 
Total Prefetch Downgrades: 13235
