
*** ChampSim Multicore Out-of-Order Simulator ***

Warmup Instructions: 10000000
Simulation Instructions: 100000000
Configuration: 2
Number of CPUs: 1
LLC sets: 2048
LLC ways: 16
Off-chip DRAM Channels: 1 Width: 64-bit Data Rate: 1600 MT/s

CPU 0 runs /datasets/cs240c-wi22-a00-public/data/Assignment2-gz/soplex_217B.trace.gz
CPU 0 L1D next line prefetcher
CPU 0 L2C IP-based stride prefetcher
Initialize SRRIP state
Heartbeat CPU 0 instructions: 1000002 cycles: 441468 heartbeat IPC: 2.26517 cumulative IPC: 2.26517 (Simulation time: 0 hr 1 min 37 sec) 
Heartbeat CPU 0 instructions: 2000003 cycles: 800626 heartbeat IPC: 2.78429 cumulative IPC: 2.49805 (Simulation time: 0 hr 3 min 0 sec) 
Heartbeat CPU 0 instructions: 3000002 cycles: 1245728 heartbeat IPC: 2.24667 cumulative IPC: 2.40823 (Simulation time: 0 hr 4 min 34 sec) 
Heartbeat CPU 0 instructions: 4000000 cycles: 1674691 heartbeat IPC: 2.3312 cumulative IPC: 2.3885 (Simulation time: 0 hr 6 min 4 sec) 
Heartbeat CPU 0 instructions: 5000001 cycles: 2058746 heartbeat IPC: 2.6038 cumulative IPC: 2.42866 (Simulation time: 0 hr 7 min 16 sec) 
Heartbeat CPU 0 instructions: 6000000 cycles: 2433255 heartbeat IPC: 2.67016 cumulative IPC: 2.46583 (Simulation time: 0 hr 8 min 29 sec) 
Heartbeat CPU 0 instructions: 7000003 cycles: 2962123 heartbeat IPC: 1.89084 cumulative IPC: 2.36317 (Simulation time: 0 hr 9 min 43 sec) 
Heartbeat CPU 0 instructions: 8000000 cycles: 3408609 heartbeat IPC: 2.23971 cumulative IPC: 2.347 (Simulation time: 0 hr 11 min 19 sec) 
Heartbeat CPU 0 instructions: 9000001 cycles: 3833047 heartbeat IPC: 2.35606 cumulative IPC: 2.348 (Simulation time: 0 hr 12 min 41 sec) 
Heartbeat CPU 0 instructions: 10000000 cycles: 4245284 heartbeat IPC: 2.42579 cumulative IPC: 2.35556 (Simulation time: 0 hr 14 min 0 sec) 

Warmup complete CPU 0 instructions: 10000004 cycles: 4245285 (Simulation time: 0 hr 14 min 0 sec) 

Heartbeat CPU 0 instructions: 11000002 cycles: 7822366 heartbeat IPC: 0.279558 cumulative IPC: 0.279557 (Simulation time: 0 hr 16 min 16 sec) 
Heartbeat CPU 0 instructions: 12000000 cycles: 10309529 heartbeat IPC: 0.402064 cumulative IPC: 0.329801 (Simulation time: 0 hr 17 min 53 sec) 
Heartbeat CPU 0 instructions: 13000000 cycles: 11624823 heartbeat IPC: 0.760286 cumulative IPC: 0.406529 (Simulation time: 0 hr 18 min 57 sec) 
Heartbeat CPU 0 instructions: 14000000 cycles: 14236609 heartbeat IPC: 0.38288 cumulative IPC: 0.400347 (Simulation time: 0 hr 20 min 28 sec) 
Heartbeat CPU 0 instructions: 15000000 cycles: 16932936 heartbeat IPC: 0.370875 cumulative IPC: 0.394084 (Simulation time: 0 hr 22 min 15 sec) 
Heartbeat CPU 0 instructions: 16000000 cycles: 20502031 heartbeat IPC: 0.280183 cumulative IPC: 0.369077 (Simulation time: 0 hr 24 min 33 sec) 
Heartbeat CPU 0 instructions: 17000002 cycles: 22809423 heartbeat IPC: 0.433391 cumulative IPC: 0.377071 (Simulation time: 0 hr 26 min 10 sec) 
Heartbeat CPU 0 instructions: 18000002 cycles: 25350088 heartbeat IPC: 0.393598 cumulative IPC: 0.379061 (Simulation time: 0 hr 27 min 55 sec) 
Heartbeat CPU 0 instructions: 19000000 cycles: 28815971 heartbeat IPC: 0.288526 cumulative IPC: 0.36629 (Simulation time: 0 hr 29 min 53 sec) 
Heartbeat CPU 0 instructions: 20000000 cycles: 30131389 heartbeat IPC: 0.760215 cumulative IPC: 0.386308 (Simulation time: 0 hr 30 min 57 sec) 
Heartbeat CPU 0 instructions: 21000000 cycles: 31545297 heartbeat IPC: 0.70726 cumulative IPC: 0.40293 (Simulation time: 0 hr 32 min 12 sec) 
Heartbeat CPU 0 instructions: 22000001 cycles: 34753988 heartbeat IPC: 0.311654 cumulative IPC: 0.39333 (Simulation time: 0 hr 33 min 55 sec) 
Heartbeat CPU 0 instructions: 23000003 cycles: 38018503 heartbeat IPC: 0.306325 cumulative IPC: 0.38492 (Simulation time: 0 hr 35 min 52 sec) 
Heartbeat CPU 0 instructions: 24000000 cycles: 41373667 heartbeat IPC: 0.298047 cumulative IPC: 0.37707 (Simulation time: 0 hr 37 min 54 sec) 
Heartbeat CPU 0 instructions: 25000001 cycles: 42830489 heartbeat IPC: 0.686426 cumulative IPC: 0.38875 (Simulation time: 0 hr 39 min 30 sec) 
Heartbeat CPU 0 instructions: 26000003 cycles: 46570972 heartbeat IPC: 0.267346 cumulative IPC: 0.378021 (Simulation time: 0 hr 41 min 41 sec) 
Heartbeat CPU 0 instructions: 27000002 cycles: 48904975 heartbeat IPC: 0.428448 cumulative IPC: 0.380656 (Simulation time: 0 hr 43 min 9 sec) 
Heartbeat CPU 0 instructions: 28000000 cycles: 50217746 heartbeat IPC: 0.761746 cumulative IPC: 0.391539 (Simulation time: 0 hr 44 min 16 sec) 
Heartbeat CPU 0 instructions: 29000002 cycles: 52894561 heartbeat IPC: 0.373579 cumulative IPC: 0.39055 (Simulation time: 0 hr 45 min 43 sec) 
Heartbeat CPU 0 instructions: 30000002 cycles: 55688105 heartbeat IPC: 0.357968 cumulative IPC: 0.388781 (Simulation time: 0 hr 47 min 35 sec) 
Heartbeat CPU 0 instructions: 31000000 cycles: 58845973 heartbeat IPC: 0.316669 cumulative IPC: 0.38461 (Simulation time: 0 hr 49 min 33 sec) 
Heartbeat CPU 0 instructions: 32000000 cycles: 60620713 heartbeat IPC: 0.563463 cumulative IPC: 0.390241 (Simulation time: 0 hr 51 min 6 sec) 
Heartbeat CPU 0 instructions: 33000001 cycles: 64036347 heartbeat IPC: 0.292772 cumulative IPC: 0.384673 (Simulation time: 0 hr 53 min 14 sec) 
Heartbeat CPU 0 instructions: 34000000 cycles: 66768287 heartbeat IPC: 0.36604 cumulative IPC: 0.383859 (Simulation time: 0 hr 54 min 49 sec) 
Heartbeat CPU 0 instructions: 35000002 cycles: 68077712 heartbeat IPC: 0.763696 cumulative IPC: 0.39165 (Simulation time: 0 hr 55 min 53 sec) 
Heartbeat CPU 0 instructions: 36000000 cycles: 70303696 heartbeat IPC: 0.449239 cumulative IPC: 0.393591 (Simulation time: 0 hr 57 min 16 sec) 
Heartbeat CPU 0 instructions: 37000002 cycles: 72966392 heartbeat IPC: 0.37556 cumulative IPC: 0.392892 (Simulation time: 0 hr 59 min 3 sec) 
Heartbeat CPU 0 instructions: 38000000 cycles: 76341774 heartbeat IPC: 0.296262 cumulative IPC: 0.388368 (Simulation time: 1 hr 1 min 13 sec) 
Heartbeat CPU 0 instructions: 39000001 cycles: 78395433 heartbeat IPC: 0.486936 cumulative IPC: 0.391098 (Simulation time: 1 hr 2 min 50 sec) 
Heartbeat CPU 0 instructions: 40000000 cycles: 81496380 heartbeat IPC: 0.322482 cumulative IPC: 0.388344 (Simulation time: 1 hr 4 min 50 sec) 
Heartbeat CPU 0 instructions: 41000000 cycles: 84465533 heartbeat IPC: 0.336796 cumulative IPC: 0.386436 (Simulation time: 1 hr 6 min 34 sec) 
Heartbeat CPU 0 instructions: 42000002 cycles: 85797691 heartbeat IPC: 0.750663 cumulative IPC: 0.392386 (Simulation time: 1 hr 7 min 37 sec) 
Heartbeat CPU 0 instructions: 43000001 cycles: 87592294 heartbeat IPC: 0.557226 cumulative IPC: 0.395935 (Simulation time: 1 hr 8 min 56 sec) 
Heartbeat CPU 0 instructions: 44000000 cycles: 90431841 heartbeat IPC: 0.352169 cumulative IPC: 0.394493 (Simulation time: 1 hr 10 min 45 sec) 
Heartbeat CPU 0 instructions: 45000003 cycles: 93954191 heartbeat IPC: 0.283902 cumulative IPC: 0.390151 (Simulation time: 1 hr 12 min 52 sec) 
Heartbeat CPU 0 instructions: 46000000 cycles: 96898333 heartbeat IPC: 0.339657 cumulative IPC: 0.388546 (Simulation time: 1 hr 14 min 51 sec) 
Heartbeat CPU 0 instructions: 47000001 cycles: 98532067 heartbeat IPC: 0.612095 cumulative IPC: 0.39242 (Simulation time: 1 hr 16 min 28 sec) 
Heartbeat CPU 0 instructions: 48000000 cycles: 102073405 heartbeat IPC: 0.282379 cumulative IPC: 0.388436 (Simulation time: 1 hr 18 min 31 sec) 
Heartbeat CPU 0 instructions: 49000000 cycles: 104618039 heartbeat IPC: 0.392984 cumulative IPC: 0.388552 (Simulation time: 1 hr 20 min 5 sec) 
Heartbeat CPU 0 instructions: 50000001 cycles: 105951250 heartbeat IPC: 0.75007 cumulative IPC: 0.393291 (Simulation time: 1 hr 21 min 11 sec) 
Heartbeat CPU 0 instructions: 51000000 cycles: 108473181 heartbeat IPC: 0.396521 cumulative IPC: 0.393369 (Simulation time: 1 hr 22 min 36 sec) 
Heartbeat CPU 0 instructions: 52000000 cycles: 111203392 heartbeat IPC: 0.366272 cumulative IPC: 0.392677 (Simulation time: 1 hr 24 min 27 sec) 
Heartbeat CPU 0 instructions: 53000000 cycles: 114382839 heartbeat IPC: 0.31452 cumulative IPC: 0.390421 (Simulation time: 1 hr 26 min 26 sec) 
Heartbeat CPU 0 instructions: 54000000 cycles: 116255899 heartbeat IPC: 0.533886 cumulative IPC: 0.39282 (Simulation time: 1 hr 27 min 57 sec) 
Heartbeat CPU 0 instructions: 55000000 cycles: 119519265 heartbeat IPC: 0.306432 cumulative IPC: 0.390374 (Simulation time: 1 hr 29 min 54 sec) 
Heartbeat CPU 0 instructions: 56000000 cycles: 122312823 heartbeat IPC: 0.357966 cumulative IPC: 0.389607 (Simulation time: 1 hr 31 min 32 sec) 
Heartbeat CPU 0 instructions: 57000003 cycles: 123632731 heartbeat IPC: 0.757631 cumulative IPC: 0.393676 (Simulation time: 1 hr 32 min 37 sec) 
Heartbeat CPU 0 instructions: 58000000 cycles: 125794280 heartbeat IPC: 0.46263 cumulative IPC: 0.394902 (Simulation time: 1 hr 34 min 0 sec) 
Heartbeat CPU 0 instructions: 59000001 cycles: 128450714 heartbeat IPC: 0.376445 cumulative IPC: 0.394508 (Simulation time: 1 hr 35 min 42 sec) 
Heartbeat CPU 0 instructions: 60000000 cycles: 131809579 heartbeat IPC: 0.297719 cumulative IPC: 0.391959 (Simulation time: 1 hr 37 min 43 sec) 
Heartbeat CPU 0 instructions: 61000000 cycles: 134078014 heartbeat IPC: 0.440833 cumulative IPC: 0.392813 (Simulation time: 1 hr 39 min 28 sec) 
Heartbeat CPU 0 instructions: 62000002 cycles: 136785900 heartbeat IPC: 0.369292 cumulative IPC: 0.392333 (Simulation time: 1 hr 41 min 38 sec) 
Heartbeat CPU 0 instructions: 63000001 cycles: 140118311 heartbeat IPC: 0.300083 cumulative IPC: 0.39007 (Simulation time: 1 hr 43 min 51 sec) 
Heartbeat CPU 0 instructions: 64000000 cycles: 141435155 heartbeat IPC: 0.759391 cumulative IPC: 0.393615 (Simulation time: 1 hr 45 min 8 sec) 
Heartbeat CPU 0 instructions: 65000001 cycles: 142946412 heartbeat IPC: 0.661702 cumulative IPC: 0.396536 (Simulation time: 1 hr 46 min 37 sec) 
Heartbeat CPU 0 instructions: 66000002 cycles: 146073977 heartbeat IPC: 0.319738 cumulative IPC: 0.394843 (Simulation time: 1 hr 48 min 39 sec) 
Heartbeat CPU 0 instructions: 67000000 cycles: 149343389 heartbeat IPC: 0.305865 cumulative IPC: 0.392838 (Simulation time: 1 hr 51 min 6 sec) 
Heartbeat CPU 0 instructions: 68000000 cycles: 155443913 heartbeat IPC: 0.16392 cumulative IPC: 0.383601 (Simulation time: 1 hr 53 min 48 sec) 
Heartbeat CPU 0 instructions: 69000001 cycles: 159825991 heartbeat IPC: 0.228202 cumulative IPC: 0.379224 (Simulation time: 1 hr 56 min 10 sec) 
Heartbeat CPU 0 instructions: 70000002 cycles: 164020144 heartbeat IPC: 0.238427 cumulative IPC: 0.375528 (Simulation time: 1 hr 58 min 26 sec) 
Heartbeat CPU 0 instructions: 71000002 cycles: 168687167 heartbeat IPC: 0.214269 cumulative IPC: 0.370952 (Simulation time: 2 hr 0 min 34 sec) 
Heartbeat CPU 0 instructions: 72000000 cycles: 172205634 heartbeat IPC: 0.284214 cumulative IPC: 0.369135 (Simulation time: 2 hr 2 min 24 sec) 
Heartbeat CPU 0 instructions: 73000000 cycles: 175515169 heartbeat IPC: 0.302157 cumulative IPC: 0.36784 (Simulation time: 2 hr 4 min 20 sec) 
Heartbeat CPU 0 instructions: 74000000 cycles: 179374701 heartbeat IPC: 0.259099 cumulative IPC: 0.365444 (Simulation time: 2 hr 5 min 57 sec) 
Heartbeat CPU 0 instructions: 75000002 cycles: 183301947 heartbeat IPC: 0.254632 cumulative IPC: 0.363014 (Simulation time: 2 hr 7 min 56 sec) 
Heartbeat CPU 0 instructions: 76000000 cycles: 185861119 heartbeat IPC: 0.390751 cumulative IPC: 0.363404 (Simulation time: 2 hr 9 min 38 sec) 
Heartbeat CPU 0 instructions: 77000000 cycles: 189537117 heartbeat IPC: 0.272035 cumulative IPC: 0.361592 (Simulation time: 2 hr 11 min 32 sec) 
Heartbeat CPU 0 instructions: 78000002 cycles: 191839316 heartbeat IPC: 0.434368 cumulative IPC: 0.362485 (Simulation time: 2 hr 13 min 13 sec) 
Heartbeat CPU 0 instructions: 79000002 cycles: 193789723 heartbeat IPC: 0.512713 cumulative IPC: 0.364031 (Simulation time: 2 hr 15 min 0 sec) 
Heartbeat CPU 0 instructions: 80000000 cycles: 194925551 heartbeat IPC: 0.880413 cumulative IPC: 0.367107 (Simulation time: 2 hr 16 min 11 sec) 
Heartbeat CPU 0 instructions: 81000003 cycles: 197329819 heartbeat IPC: 0.415928 cumulative IPC: 0.367715 (Simulation time: 2 hr 17 min 50 sec) 
Heartbeat CPU 0 instructions: 82000001 cycles: 200781364 heartbeat IPC: 0.289725 cumulative IPC: 0.366345 (Simulation time: 2 hr 19 min 49 sec) 
Heartbeat CPU 0 instructions: 83000002 cycles: 203261402 heartbeat IPC: 0.40322 cumulative IPC: 0.366804 (Simulation time: 2 hr 21 min 26 sec) 
Heartbeat CPU 0 instructions: 84000000 cycles: 205598317 heartbeat IPC: 0.427914 cumulative IPC: 0.367514 (Simulation time: 2 hr 23 min 0 sec) 
Heartbeat CPU 0 instructions: 85000000 cycles: 207180898 heartbeat IPC: 0.631879 cumulative IPC: 0.369575 (Simulation time: 2 hr 24 min 23 sec) 
Heartbeat CPU 0 instructions: 86000001 cycles: 210809161 heartbeat IPC: 0.275614 cumulative IPC: 0.367925 (Simulation time: 2 hr 26 min 3 sec) 
Heartbeat CPU 0 instructions: 87000000 cycles: 213363704 heartbeat IPC: 0.391459 cumulative IPC: 0.368212 (Simulation time: 2 hr 27 min 7 sec) 
Heartbeat CPU 0 instructions: 88000000 cycles: 214687399 heartbeat IPC: 0.755461 cumulative IPC: 0.370648 (Simulation time: 2 hr 27 min 54 sec) 
Heartbeat CPU 0 instructions: 89000003 cycles: 217283905 heartbeat IPC: 0.385134 cumulative IPC: 0.370825 (Simulation time: 2 hr 28 min 49 sec) 
Heartbeat CPU 0 instructions: 90000002 cycles: 220047636 heartbeat IPC: 0.361829 cumulative IPC: 0.37071 (Simulation time: 2 hr 29 min 58 sec) 
Heartbeat CPU 0 instructions: 91000001 cycles: 223278996 heartbeat IPC: 0.309467 cumulative IPC: 0.369806 (Simulation time: 2 hr 31 min 11 sec) 
Heartbeat CPU 0 instructions: 92000000 cycles: 225125187 heartbeat IPC: 0.541655 cumulative IPC: 0.371242 (Simulation time: 2 hr 32 min 7 sec) 
Heartbeat CPU 0 instructions: 93000000 cycles: 228490643 heartbeat IPC: 0.297137 cumulative IPC: 0.37013 (Simulation time: 2 hr 33 min 13 sec) 
Heartbeat CPU 0 instructions: 94000001 cycles: 231276684 heartbeat IPC: 0.358933 cumulative IPC: 0.369993 (Simulation time: 2 hr 34 min 5 sec) 
Heartbeat CPU 0 instructions: 95000003 cycles: 232601718 heartbeat IPC: 0.754699 cumulative IPC: 0.372225 (Simulation time: 2 hr 34 min 40 sec) 
Heartbeat CPU 0 instructions: 96000000 cycles: 234824837 heartbeat IPC: 0.449817 cumulative IPC: 0.372973 (Simulation time: 2 hr 35 min 23 sec) 
Heartbeat CPU 0 instructions: 97000002 cycles: 237335614 heartbeat IPC: 0.398284 cumulative IPC: 0.373246 (Simulation time: 2 hr 36 min 15 sec) 
Heartbeat CPU 0 instructions: 98000003 cycles: 241300199 heartbeat IPC: 0.252233 cumulative IPC: 0.371222 (Simulation time: 2 hr 37 min 23 sec) 
Heartbeat CPU 0 instructions: 99000000 cycles: 244168478 heartbeat IPC: 0.34864 cumulative IPC: 0.370952 (Simulation time: 2 hr 38 min 17 sec) 
Heartbeat CPU 0 instructions: 100000000 cycles: 246047599 heartbeat IPC: 0.532164 cumulative IPC: 0.372205 (Simulation time: 2 hr 39 min 3 sec) 
Heartbeat CPU 0 instructions: 101000001 cycles: 249938510 heartbeat IPC: 0.257009 cumulative IPC: 0.370381 (Simulation time: 2 hr 40 min 2 sec) 
Heartbeat CPU 0 instructions: 102000000 cycles: 251533775 heartbeat IPC: 0.626854 cumulative IPC: 0.372035 (Simulation time: 2 hr 40 min 33 sec) 
Heartbeat CPU 0 instructions: 103000001 cycles: 252838069 heartbeat IPC: 0.766699 cumulative IPC: 0.374106 (Simulation time: 2 hr 41 min 4 sec) 
Heartbeat CPU 0 instructions: 104000000 cycles: 256106086 heartbeat IPC: 0.305996 cumulative IPC: 0.373222 (Simulation time: 2 hr 41 min 47 sec) 
Heartbeat CPU 0 instructions: 105000003 cycles: 259185684 heartbeat IPC: 0.324719 cumulative IPC: 0.372636 (Simulation time: 2 hr 42 min 30 sec) 
Heartbeat CPU 0 instructions: 106000002 cycles: 261886298 heartbeat IPC: 0.370286 cumulative IPC: 0.372611 (Simulation time: 2 hr 43 min 8 sec) 
Heartbeat CPU 0 instructions: 107000000 cycles: 263601344 heartbeat IPC: 0.583074 cumulative IPC: 0.374003 (Simulation time: 2 hr 43 min 47 sec) 
Heartbeat CPU 0 instructions: 108000000 cycles: 267432606 heartbeat IPC: 0.261011 cumulative IPC: 0.372358 (Simulation time: 2 hr 44 min 34 sec) 
Heartbeat CPU 0 instructions: 109000000 cycles: 269320759 heartbeat IPC: 0.529618 cumulative IPC: 0.373479 (Simulation time: 2 hr 45 min 0 sec) 
Heartbeat CPU 0 instructions: 110000002 cycles: 270621893 heartbeat IPC: 0.768562 cumulative IPC: 0.375408 (Simulation time: 2 hr 45 min 23 sec) 
Finished CPU 0 instructions: 100000000 cycles: 266376612 cummulative IPC: 0.375408 (Simulation time: 2 hr 45 min 23 sec) 

ChampSim completed all CPUs

Region of Interest Statistics

CPU 0 cummulative IPC: 0.375408 instructions: 100000000 cycles: 266376612
LLC TOTAL     ACCESS:    8712990  HIT:    4674655  MISS:    4038335
LLC LOAD      ACCESS:    2236530  HIT:    1073424  MISS:    1163106
LLC RFO       ACCESS:     764900  HIT:     274531  MISS:     490369
LLC PREFETCH  ACCESS:    3551101  HIT:    1602593  MISS:    1948508
LLC WRITEBACK ACCESS:    2160459  HIT:    1724107  MISS:     436352
Insertion Distribution: 
	LOAD 335493 0 0 0 0 0 0 0 0 0 0 0 0 0 0 0 0 0 0 0 0 0 0 0 0 0 0 0 0 0 120763 822092 
	RFO 208925 0 0 0 0 0 0 0 0 0 0 0 0 0 0 0 0 0 0 0 0 0 0 0 0 0 0 0 0 0 66658 266102 
	PREF 0 97234 0 0 0 0 0 0 0 0 0 0 0 0 0 0 0 0 0 0 0 0 0 0 0 0 0 0 0 0 243111 1882749 
	WRITEBACK 0 0 0 0 0 0 0 0 0 0 0 0 0 0 0 0 0 0 0 0 0 0 0 0 0 0 0 0 0 0 0 537924 
Total Prefetch Downgrades: 122539
